# generated using pymatgen
data_S7(N3O4)2
_symmetry_space_group_name_H-M   P-42_1m
_cell_length_a   12.14275608
_cell_length_b   12.14275608
_cell_length_c   5.16461517
_cell_angle_alpha   90.00000000
_cell_angle_beta   90.00000000
_cell_angle_gamma   90.00000000
_symmetry_Int_Tables_number   113
_chemical_formula_structural   S7(N3O4)2
_chemical_formula_sum   'S14 N12 O16'
_cell_volume   761.50456091
_cell_formula_units_Z   2
loop_
 _symmetry_equiv_pos_site_id
 _symmetry_equiv_pos_as_xyz
  1  'x, y, z'
  2  'y, -x, -z'
  3  '-x, -y, z'
  4  '-y, x, -z'
  5  'x+1/2, -y+1/2, -z'
  6  'y+1/2, x+1/2, z'
  7  '-x+1/2, y+1/2, -z'
  8  '-y+1/2, -x+1/2, z'
loop_
 _atom_site_type_symbol
 _atom_site_label
 _atom_site_symmetry_multiplicity
 _atom_site_fract_x
 _atom_site_fract_y
 _atom_site_fract_z
 _atom_site_occupancy
  S  S0  8  0.038040  0.711498  0.115640  1
  S  S1  4  0.244397  0.255603  0.702716  1
  S  S2  2  0.000000  0.500000  0.404093  1
  N  N3  8  0.134977  0.790500  0.242914  1
  N  N4  4  0.078737  0.578737  0.208188  1
  O  O5  8  0.045457  0.719368  0.839129  1
  O  O6  8  0.062743  0.266072  0.247389  1
