# generated using pymatgen
data_Li4Si2O7
_symmetry_space_group_name_H-M   P-42_1m
_cell_length_a   7.78827855
_cell_length_b   7.78827855
_cell_length_c   5.40331046
_cell_angle_alpha   90.00000000
_cell_angle_beta   90.00000000
_cell_angle_gamma   90.00000000
_symmetry_Int_Tables_number   113
_chemical_formula_structural   Li4Si2O7
_chemical_formula_sum   'Li8 Si4 O14'
_cell_volume   327.75013048
_cell_formula_units_Z   2
loop_
 _symmetry_equiv_pos_site_id
 _symmetry_equiv_pos_as_xyz
  1  'x, y, z'
  2  'y, -x, -z'
  3  '-x, -y, z'
  4  '-y, x, -z'
  5  'x+1/2, -y+1/2, -z'
  6  'y+1/2, x+1/2, z'
  7  '-x+1/2, y+1/2, -z'
  8  '-y+1/2, -x+1/2, z'
loop_
 _atom_site_type_symbol
 _atom_site_label
 _atom_site_symmetry_multiplicity
 _atom_site_fract_x
 _atom_site_fract_y
 _atom_site_fract_z
 _atom_site_occupancy
  Li  Li0  8  0.067948  0.155640  0.315917  1
  Si  Si1  4  0.147339  0.352661  0.816100  1
  O  O2  8  0.081864  0.173609  0.690475  1
  O  O3  4  0.167351  0.332649  0.114603  1
  O  O4  2  0.000000  0.500000  0.757147  1
