# generated using pymatgen
data_Mo6NO18
_symmetry_space_group_name_H-M   P3
_cell_length_a   10.91061152
_cell_length_b   10.91061152
_cell_length_c   3.78930968
_cell_angle_alpha   90.00000000
_cell_angle_beta   90.00000000
_cell_angle_gamma   120.00000000
_symmetry_Int_Tables_number   143
_chemical_formula_structural   Mo6NO18
_chemical_formula_sum   'Mo6 N1 O18'
_cell_volume   390.65097824
_cell_formula_units_Z   1
loop_
 _symmetry_equiv_pos_site_id
 _symmetry_equiv_pos_as_xyz
  1  'x, y, z'
  2  '-y, x-y, z'
  3  '-x+y, -x, z'
loop_
 _atom_site_type_symbol
 _atom_site_label
 _atom_site_symmetry_multiplicity
 _atom_site_fract_x
 _atom_site_fract_y
 _atom_site_fract_z
 _atom_site_occupancy
  Mo  Mo0  3  0.104565  0.459058  0.250036  1
  Mo  Mo1  3  0.458970  0.354439  0.749974  1
  N  N2  1  0.000000  0.000000  0.395165  1
  O  O3  3  0.011570  0.279077  0.249803  1
  O  O4  3  0.077601  0.498404  0.749994  1
  O  O5  3  0.217778  0.719288  0.249986  1
  O  O6  3  0.278977  0.267360  0.750137  1
  O  O7  3  0.498392  0.420793  0.250005  1
  O  O8  3  0.498494  0.217798  0.750010  1
