# generated using pymatgen
data_Nb6SnTe8
_symmetry_space_group_name_H-M   P-3
_cell_length_a   10.73417008
_cell_length_b   10.73417008
_cell_length_c   3.67138973
_cell_angle_alpha   90.00000000
_cell_angle_beta   90.00000000
_cell_angle_gamma   120.00000000
_symmetry_Int_Tables_number   147
_chemical_formula_structural   Nb6SnTe8
_chemical_formula_sum   'Nb6 Sn1 Te8'
_cell_volume   366.35157696
_cell_formula_units_Z   1
loop_
 _symmetry_equiv_pos_site_id
 _symmetry_equiv_pos_as_xyz
  1  'x, y, z'
  2  '-x, -y, -z'
  3  '-y, x-y, z'
  4  'y, -x+y, -z'
  5  '-x+y, -x, z'
  6  'x-y, x, -z'
loop_
 _atom_site_type_symbol
 _atom_site_label
 _atom_site_symmetry_multiplicity
 _atom_site_fract_x
 _atom_site_fract_y
 _atom_site_fract_z
 _atom_site_occupancy
  Nb  Nb0  6  0.102973  0.489351  0.749699  1
  Sn  Sn1  1  0.000000  0.000000  0.500000  1
  Te  Te2  6  0.061083  0.729724  0.750979  1
  Te  Te3  2  0.333333  0.666667  0.250441  1
