# generated using pymatgen
data_Mn2NiO14
_symmetry_space_group_name_H-M   P3m1
_cell_length_a   7.62559129
_cell_length_b   7.62559129
_cell_length_c   4.48038913
_cell_angle_alpha   90.00000000
_cell_angle_beta   90.00000000
_cell_angle_gamma   120.00000000
_symmetry_Int_Tables_number   156
_chemical_formula_structural   Mn2NiO14
_chemical_formula_sum   'Mn2 Ni1 O14'
_cell_volume   225.62821941
_cell_formula_units_Z   1
loop_
 _symmetry_equiv_pos_site_id
 _symmetry_equiv_pos_as_xyz
  1  'x, y, z'
  2  '-y, x-y, z'
  3  '-x+y, -x, z'
  4  '-y, -x, z'
  5  '-x+y, y, z'
  6  'x, x-y, z'
loop_
 _atom_site_type_symbol
 _atom_site_label
 _atom_site_symmetry_multiplicity
 _atom_site_fract_x
 _atom_site_fract_y
 _atom_site_fract_z
 _atom_site_occupancy
  Mn  Mn0  1  0.333333  0.666667  0.992512  1
  Mn  Mn1  1  0.666667  0.333333  0.499493  1
  Ni  Ni2  1  0.000000  0.000000  0.253971  1
  O  O3  3  0.096914  0.548457  0.883883  1
  O  O4  3  0.099797  0.199594  0.554439  1
  O  O5  3  0.205641  0.102821  0.965864  1
  O  O6  3  0.550672  0.101344  0.391310  1
  O  O7  1  0.333333  0.666667  0.353717  1
  O  O8  1  0.666667  0.333333  0.861490  1
