# generated using pymatgen
data_Li2UBr6
_symmetry_space_group_name_H-M   P-31m
_cell_length_a   6.98236535
_cell_length_b   6.98236535
_cell_length_c   7.01709383
_cell_angle_alpha   90.00000000
_cell_angle_beta   90.00000000
_cell_angle_gamma   120.00000000
_symmetry_Int_Tables_number   162
_chemical_formula_structural   Li2UBr6
_chemical_formula_sum   'Li2 U1 Br6'
_cell_volume   296.27366778
_cell_formula_units_Z   1
loop_
 _symmetry_equiv_pos_site_id
 _symmetry_equiv_pos_as_xyz
  1  'x, y, z'
  2  '-x, -y, -z'
  3  '-y, x-y, z'
  4  'y, -x+y, -z'
  5  '-x+y, -x, z'
  6  'x-y, x, -z'
  7  '-y, -x, -z'
  8  'y, x, z'
  9  '-x+y, y, -z'
  10  'x-y, -y, z'
  11  'x, x-y, -z'
  12  '-x, -x+y, z'
loop_
 _atom_site_type_symbol
 _atom_site_label
 _atom_site_symmetry_multiplicity
 _atom_site_fract_x
 _atom_site_fract_y
 _atom_site_fract_z
 _atom_site_occupancy
  Li  Li0  2  0.333333  0.666667  0.500000  1
  U  U1  1  0.000000  0.000000  0.500000  1
  Br  Br2  6  0.000000  0.332911  0.721877  1
