# generated using pymatgen
data_VF4
_symmetry_space_group_name_H-M   P2_1/c
_cell_length_a   5.92242386
_cell_length_b   5.10403070
_cell_length_c   9.69577292
_cell_angle_alpha   90.00000000
_cell_angle_beta   92.19811403
_cell_angle_gamma   90.00000000
_symmetry_Int_Tables_number   14
_chemical_formula_structural   VF4
_chemical_formula_sum   'V4 F16'
_cell_volume   292.87042607
_cell_formula_units_Z   4
loop_
 _symmetry_equiv_pos_site_id
 _symmetry_equiv_pos_as_xyz
  1  'x, y, z'
  2  '-x, -y, -z'
  3  '-x, y+1/2, -z+1/2'
  4  'x, -y+1/2, z+1/2'
loop_
 _atom_site_type_symbol
 _atom_site_label
 _atom_site_symmetry_multiplicity
 _atom_site_fract_x
 _atom_site_fract_y
 _atom_site_fract_z
 _atom_site_occupancy
  V  V0  4  0.413920  0.522212  0.867943  1
  F  F1  4  0.146893  0.086845  0.302189  1
  F  F2  4  0.221679  0.669342  0.420863  1
  F  F3  4  0.308880  0.235136  0.537409  1
  F  F4  4  0.472306  0.687209  0.704488  1
