# generated using pymatgen
data_As2S3
_symmetry_space_group_name_H-M   P2_1/c
_cell_length_a   4.60064395
_cell_length_b   11.00697896
_cell_length_c   12.25978541
_cell_angle_alpha   90.00000000
_cell_angle_beta   111.73521419
_cell_angle_gamma   90.00000000
_symmetry_Int_Tables_number   14
_chemical_formula_structural   As2S3
_chemical_formula_sum   'As8 S12'
_cell_volume   576.68811144
_cell_formula_units_Z   4
loop_
 _symmetry_equiv_pos_site_id
 _symmetry_equiv_pos_as_xyz
  1  'x, y, z'
  2  '-x, -y, -z'
  3  '-x, y+1/2, -z+1/2'
  4  'x, -y+1/2, z+1/2'
loop_
 _atom_site_type_symbol
 _atom_site_label
 _atom_site_symmetry_multiplicity
 _atom_site_fract_x
 _atom_site_fract_y
 _atom_site_fract_z
 _atom_site_occupancy
  As  As0  4  0.777410  0.673897  0.518016  1
  As  As1  4  0.646470  0.664381  0.241758  1
  S  S2  4  0.842017  0.124578  0.398085  1
  S  S3  4  0.698277  0.629650  0.657335  1
  S  S4  4  0.623861  0.204533  0.631951  1
