# generated using pymatgen
data_ReS2
_symmetry_space_group_name_H-M   P-1
_cell_length_a   6.41909998
_cell_length_b   6.52305928
_cell_length_c   7.04466280
_cell_angle_alpha   91.77954655
_cell_angle_beta   103.97424420
_cell_angle_gamma   118.83663692
_symmetry_Int_Tables_number   2
_chemical_formula_structural   ReS2
_chemical_formula_sum   'Re4 S8'
_cell_volume   246.94557032
_cell_formula_units_Z   4
loop_
 _symmetry_equiv_pos_site_id
 _symmetry_equiv_pos_as_xyz
  1  'x, y, z'
  2  '-x, -y, -z'
loop_
 _atom_site_type_symbol
 _atom_site_label
 _atom_site_symmetry_multiplicity
 _atom_site_fract_x
 _atom_site_fract_y
 _atom_site_fract_z
 _atom_site_occupancy
  Re  Re0  2  0.398083  0.716645  0.530098  1
  Re  Re1  2  0.464885  0.543703  0.184595  1
  S  S2  2  0.920165  0.632072  0.384092  1
  S  S3  2  0.837993  0.428120  0.105455  1
  S  S4  2  0.673624  0.712708  0.914483  1
  S  S5  2  0.317989  0.040151  0.724458  1
