# generated using pymatgen
data_Nb6TlSe8
_symmetry_space_group_name_H-M 'P-3'
_cell_length_a   10.21363845
_cell_length_b   10.21363845
_cell_length_c   3.50300729
_cell_angle_alpha   90.00000000
_cell_angle_beta   90.00000000
_cell_angle_gamma   120.00000000
_symmetry_Int_Tables_number                  147
_chemical_formula_structural   Nb6TlSe8
_chemical_formula_sum   'Nb6 Tl1 Se8'
_cell_volume   316.47006295
_cell_formula_units_Z   1
loop_
 _symmetry_equiv_pos_site_id
 _symmetry_equiv_pos_as_xyz
1 'x, y, z'
2 '-y, x-y, z'
3 '-x+y, -x, z'
4 '-x, -y, -z'
5 'y, -x+y, -z'
6 'x-y, x, -z'

loop_
 _atom_site_type_symbol
 _atom_site_label
 _atom_site_symmetry_multiplicity
 _atom_site_fract_x
 _atom_site_fract_y
 _atom_site_fract_z
 _atom_site_occupancy
  Nb  Nb0  6  0.375685  0.459972  0.953901  1
  Tl  Tl1  1  0.000000  0.000000  0.500000  1
  Se  Se2  6  0.280263  0.311105  0.090673  1
  Se  Se3  2  0.333333  0.666667  0.571374  1
