# generated using pymatgen
data_LiSbN2
_symmetry_space_group_name_H-M   Pna2_1
_cell_length_a   5.78413828
_cell_length_b   6.96137127
_cell_length_c   5.44757991
_cell_angle_alpha   90.00000000
_cell_angle_beta   90.00000000
_cell_angle_gamma   90.00000000
_symmetry_Int_Tables_number   33
_chemical_formula_structural   LiSbN2
_chemical_formula_sum   'Li4 Sb4 N8'
_cell_volume   219.34971432
_cell_formula_units_Z   4
loop_
 _symmetry_equiv_pos_site_id
 _symmetry_equiv_pos_as_xyz
  1  'x, y, z'
  2  '-x, -y, z+1/2'
  3  '-x+1/2, y+1/2, z+1/2'
  4  'x+1/2, -y+1/2, z'
loop_
 _atom_site_type_symbol
 _atom_site_label
 _atom_site_symmetry_multiplicity
 _atom_site_fract_x
 _atom_site_fract_y
 _atom_site_fract_z
 _atom_site_occupancy
  Li  Li0  4  0.590764  0.147065  0.425260  1
  Sb  Sb1  4  0.561345  0.614626  0.413219  1
  N  N2  4  0.565414  0.617167  0.066952  1
  N  N3  4  0.566053  0.102877  0.020578  1
