# generated using pymatgen
data_Ni(IO3)2
_symmetry_space_group_name_H-M 'P21'
_cell_length_a   5.48416635
_cell_length_b   5.26004470
_cell_length_c   9.37126090
_cell_angle_alpha   90.00000000
_cell_angle_beta   90.03451743
_cell_angle_gamma   90.00000000
_symmetry_Int_Tables_number                    4
_chemical_formula_structural   Ni(IO3)2
_chemical_formula_sum   'Ni2 I4 O12'
_cell_volume   270.33234062
_cell_formula_units_Z   2
loop_
 _symmetry_equiv_pos_site_id
 _symmetry_equiv_pos_as_xyz
1 'x, y, z'
2 '-x, y+1/2, -z'

loop_
 _atom_site_type_symbol
 _atom_site_label
 _atom_site_symmetry_multiplicity
 _atom_site_fract_x
 _atom_site_fract_y
 _atom_site_fract_z
 _atom_site_occupancy
  Ni  Ni0  2  0.299650  0.770216  0.403540  1
  I  I1  2  0.900670  0.838005  0.333367  1
  I  I2  2  0.800806  0.160057  0.971343  1
  O  O3  2  0.251366  0.440034  0.548426  1
  O  O4  2  0.957947  0.109380  0.952813  1
  O  O5  2  0.711105  0.319669  0.861502  1
  O  O6  2  0.225482  0.997189  0.318238  1
  O  O7  2  0.938000  0.663904  0.221905  1
  O  O8  2  0.833427  0.347708  0.401978  1
