# generated using pymatgen
data_Ni(IO3)2
_symmetry_space_group_name_H-M   P2_1
_cell_length_a   5.48416635
_cell_length_b   5.26004470
_cell_length_c   9.37126090
_cell_angle_alpha   90.00000000
_cell_angle_beta   90.03451743
_cell_angle_gamma   90.00000000
_symmetry_Int_Tables_number   4
_chemical_formula_structural   Ni(IO3)2
_chemical_formula_sum   'Ni2 I4 O12'
_cell_volume   270.33234071
_cell_formula_units_Z   2
loop_
 _symmetry_equiv_pos_site_id
 _symmetry_equiv_pos_as_xyz
  1  'x, y, z'
  2  '-x, y+1/2, -z'
loop_
 _atom_site_type_symbol
 _atom_site_label
 _atom_site_symmetry_multiplicity
 _atom_site_fract_x
 _atom_site_fract_y
 _atom_site_fract_z
 _atom_site_occupancy
  Ni  Ni0  2  0.463808  0.485731  0.271709  1
  I  I1  2  0.075507  0.351640  0.569889  1
  I  I2  2  0.860071  0.378733  0.902950  1
  O  O3  2  0.726151  0.215985  0.374882  1
  O  O4  2  0.809272  0.407042  0.771839  1
  O  O5  2  0.628388  0.316986  0.052195  1
  O  O6  2  0.273086  0.529352  0.417417  1
  O  O7  2  0.120919  0.512886  0.093447  1
  O  O8  2  0.150764  0.138995  0.717568  1
