# generated using pymatgen
data_CoAs2
_symmetry_space_group_name_H-M 'P21/c'
_cell_length_a   6.00380894
_cell_length_b   5.95853267
_cell_length_c   4.27462716
_cell_angle_alpha   90.00000000
_cell_angle_beta   102.20099251
_cell_angle_gamma   90.00000000
_symmetry_Int_Tables_number                   14
_chemical_formula_structural   CoAs2
_chemical_formula_sum   'Co4 As8'
_cell_volume   149.46592669
_cell_formula_units_Z   4
loop_
 _symmetry_equiv_pos_site_id
 _symmetry_equiv_pos_as_xyz
1 'x, y, z'
2 '-x, y+1/2, -z+1/2'
3 '-x, -y, -z'
4 'x, -y+1/2, z+1/2'

loop_
 _atom_site_type_symbol
 _atom_site_label
 _atom_site_symmetry_multiplicity
 _atom_site_fract_x
 _atom_site_fract_y
 _atom_site_fract_z
 _atom_site_occupancy
  Co  Co0  4  0.805493  0.096289  0.944927  1
  As  As1  4  0.760182  0.688677  0.820375  1
  As  As2  4  0.303584  0.769706  0.816617  1
