# generated using pymatgen
data_CoAs2
_symmetry_space_group_name_H-M 'P21/c'
_cell_length_a   8.98614098
_cell_length_b   3.21718121
_cell_length_c   5.62395286
_cell_angle_alpha   90.00000000
_cell_angle_beta   98.80371822
_cell_angle_gamma   90.00000000
_symmetry_Int_Tables_number                   14
_chemical_formula_structural   CoAs2
_chemical_formula_sum   'Co4 As8'
_cell_volume   160.67317728
_cell_formula_units_Z   4
loop_
 _symmetry_equiv_pos_site_id
 _symmetry_equiv_pos_as_xyz
1 'x, y, z'
2 '-x, y+1/2, -z+1/2'
3 '-x, -y, -z'
4 'x, -y+1/2, z+1/2'

loop_
 _atom_site_type_symbol
 _atom_site_label
 _atom_site_symmetry_multiplicity
 _atom_site_fract_x
 _atom_site_fract_y
 _atom_site_fract_z
 _atom_site_occupancy
  Co  Co0  4  0.097318  0.657288  0.882298  1
  As  As1  4  0.783909  0.473162  0.125308  1
  As  As2  4  0.968821  0.009989  0.045792  1
