# generated using pymatgen
data_K(Ti3Se4)2
_symmetry_space_group_name_H-M 'P-3'
_cell_length_a   7.13197257
_cell_length_b   7.13197257
_cell_length_c   9.33956255
_cell_angle_alpha   90.00000000
_cell_angle_beta   90.00000000
_cell_angle_gamma   120.00000000
_symmetry_Int_Tables_number                  147
_chemical_formula_structural   K(Ti3Se4)2
_chemical_formula_sum   'K1 Ti6 Se8'
_cell_volume   411.41156420
_cell_formula_units_Z   1
loop_
 _symmetry_equiv_pos_site_id
 _symmetry_equiv_pos_as_xyz
1 'x, y, z'
2 '-y, x-y, z'
3 '-x+y, -x, z'
4 '-x, -y, -z'
5 'y, -x+y, -z'
6 'x-y, x, -z'

loop_
 _atom_site_type_symbol
 _atom_site_label
 _atom_site_symmetry_multiplicity
 _atom_site_fract_x
 _atom_site_fract_y
 _atom_site_fract_z
 _atom_site_occupancy
  K  K0  1  0.000000  0.000000  0.500000  1
  Ti  Ti1  6  0.910441  0.641845  0.047469  1
  Se  Se2  6  0.140912  0.246612  0.787613  1
  Se  Se3  2  0.333333  0.666667  0.749176  1
