# generated using pymatgen
data_Mn3(OF2)2
_symmetry_space_group_name_H-M 'Pmn21'
_cell_length_a   5.91068631
_cell_length_b   5.68191444
_cell_length_c   3.18561940
_cell_angle_alpha   90.00000000
_cell_angle_beta   90.00000000
_cell_angle_gamma   90.00000000
_symmetry_Int_Tables_number                   31
_chemical_formula_structural   Mn3(OF2)2
_chemical_formula_sum   'Mn6 O4 F8'
_cell_volume   106.98588623
_cell_formula_units_Z   2
loop_
 _symmetry_equiv_pos_site_id
 _symmetry_equiv_pos_as_xyz
1 'x, y, z'
2 '-x+1/2, -y, z+1/2'
3 'x+1/2, -y, z+1/2'
4 '-x, y, z'

loop_
 _atom_site_type_symbol
 _atom_site_label
 _atom_site_symmetry_multiplicity
 _atom_site_fract_x
 _atom_site_fract_y
 _atom_site_fract_z
 _atom_site_occupancy
  Mn  Mn0  4  0.245438  0.582993  0.763181  1
  Mn  Mn1  2  0.000000  0.471266  0.921953  1
  O  O2  4  0.215626  0.689876  0.671149  1
  F  F3  4  0.190548  0.518878  0.360073  1
  F  F4  2  0.000000  0.505659  0.258397  1
  F  F5  2  0.000000  0.584376  0.380356  1
