# generated using pymatgen
data_Ni(IO3)2
_symmetry_space_group_name_H-M 'P21'
_cell_length_a   5.11238386
_cell_length_b   5.30234851
_cell_length_c   7.30309345
_cell_angle_alpha   90.00000000
_cell_angle_beta   80.85916480
_cell_angle_gamma   90.00000000
_symmetry_Int_Tables_number                    4
_chemical_formula_structural   Ni(IO3)2
_chemical_formula_sum   'Ni2 I4 O12'
_cell_volume   195.45558631
_cell_formula_units_Z   2
loop_
 _symmetry_equiv_pos_site_id
 _symmetry_equiv_pos_as_xyz
1 'x, y, z'
2 '-x, y+1/2, -z'

loop_
 _atom_site_type_symbol
 _atom_site_label
 _atom_site_symmetry_multiplicity
 _atom_site_fract_x
 _atom_site_fract_y
 _atom_site_fract_z
 _atom_site_occupancy
  Ni  Ni0  2  0.641018  0.129692  0.710350  1
  I  I1  2  0.455774  0.561340  0.041294  1
  I  I2  2  0.039179  0.620846  0.775278  1
  O  O3  2  0.768618  0.080614  0.776905  1
  O  O4  2  0.177858  0.458190  0.515045  1
  O  O5  2  0.887741  0.398107  0.731702  1
  O  O6  2  0.578508  0.526286  0.703799  1
  O  O7  2  0.693142  0.334021  0.449280  1
  O  O8  2  0.728918  0.586171  0.175607  1
