# generated using pymatgen
data_Ni(IO3)2
_symmetry_space_group_name_H-M 'P21'
_cell_length_a   5.11238386
_cell_length_b   5.30234851
_cell_length_c   7.30309345
_cell_angle_alpha   90.00000000
_cell_angle_beta   80.85916480
_cell_angle_gamma   90.00000000
_symmetry_Int_Tables_number                    4
_chemical_formula_structural   Ni(IO3)2
_chemical_formula_sum   'Ni2 I4 O12'
_cell_volume   195.45558631
_cell_formula_units_Z   2
loop_
 _symmetry_equiv_pos_site_id
 _symmetry_equiv_pos_as_xyz
1 'x, y, z'
2 '-x, y+1/2, -z'

loop_
 _atom_site_type_symbol
 _atom_site_label
 _atom_site_symmetry_multiplicity
 _atom_site_fract_x
 _atom_site_fract_y
 _atom_site_fract_z
 _atom_site_occupancy
  Ni  Ni0  2  0.583110  0.178853  0.429585  1
  I  I1  2  0.852930  0.893792  0.548177  1
  I  I2  2  0.670639  0.039708  0.822696  1
  O  O3  2  0.891951  0.349626  0.053742  1
  O  O4  2  0.504855  0.487244  0.244812  1
  O  O5  2  0.550479  0.870502  0.648716  1
  O  O6  2  0.750221  0.013114  0.083752  1
  O  O7  2  0.020869  0.489137  0.680014  1
  O  O8  2  0.146697  0.633733  0.998372  1
