# generated using pymatgen
data_HfSO
_symmetry_space_group_name_H-M   'P 1'
_cell_length_a   6.09604428
_cell_length_b   6.09604428
_cell_length_c   6.09604428
_cell_angle_alpha   90.00000000
_cell_angle_beta   90.00000000
_cell_angle_gamma   90.00000000
_symmetry_Int_Tables_number   1
_chemical_formula_structural   HfSO
_chemical_formula_sum   'Hf4 S4 O4'
_cell_volume   226.53970962
_cell_formula_units_Z   4
loop_
 _symmetry_equiv_pos_site_id
 _symmetry_equiv_pos_as_xyz
  1  'x, y, z'
loop_
 _atom_site_type_symbol
 _atom_site_label
 _atom_site_symmetry_multiplicity
 _atom_site_fract_x
 _atom_site_fract_y
 _atom_site_fract_z
 _atom_site_occupancy
  Hf  Hf0  1  0.07944989  0.07944989  0.07944989  1
  Hf  Hf1  1  0.42055011  -0.07944989  0.57944989  1
  Hf  Hf2  1  -0.07944989  0.57944989  0.42055011  1
  Hf  Hf3  1  0.57944989  0.42055011  -0.07944989  1
  O  O4  1  0.52034995  0.52034995  0.52034995  1
  O  O5  1  0.97965005  0.47965005  0.02034995  1
  O  O6  1  0.47965005  0.02034995  0.97965005  1
  O  O7  1  0.02034995  0.97965005  0.47965005  1
  S  S8  1  0.29390528  0.29390528  0.29390528  1
  S  S9  1  0.20609472  0.70609472  0.79390528  1
  S  S10  1  0.70609472  0.79390528  0.20609472  1
  S  S11  1  0.79390528  0.20609472  0.70609472  1
