# generated using pymatgen
data_VF4
_symmetry_space_group_name_H-M 'P21/c'
_cell_length_a   4.56750215
_cell_length_b   5.86248757
_cell_length_c   5.40233616
_cell_angle_alpha   90.00000000
_cell_angle_beta   100.56801762
_cell_angle_gamma   90.00000000
_symmetry_Int_Tables_number                   14
_chemical_formula_structural   VF4
_chemical_formula_sum   'V4 F16'
_cell_volume   142.20424210
_cell_formula_units_Z   4
loop_
 _symmetry_equiv_pos_site_id
 _symmetry_equiv_pos_as_xyz
1 'x, y, z'
2 '-x, y+1/2, -z+1/2'
3 '-x, -y, -z'
4 'x, -y+1/2, z+1/2'

loop_
 _atom_site_type_symbol
 _atom_site_label
 _atom_site_symmetry_multiplicity
 _atom_site_fract_x
 _atom_site_fract_y
 _atom_site_fract_z
 _atom_site_occupancy
  V  V0  4  0.439405  0.199877  0.388364  1
  F  F1  4  0.888105  0.338957  0.901580  1
  F  F2  4  0.047435  0.235585  0.816524  1
  F  F3  4  0.730422  0.600191  0.089693  1
  F  F4  4  0.868218  0.150871  0.553088  1
