# generated using pymatgen
data_SN
_symmetry_space_group_name_H-M   P2_1/c
_cell_length_a   4.75711590
_cell_length_b   4.53351105
_cell_length_c   8.42171931
_cell_angle_alpha   90.00000000
_cell_angle_beta   112.07624786
_cell_angle_gamma   90.00000000
_symmetry_Int_Tables_number   14
_chemical_formula_structural   SN
_chemical_formula_sum   'S4 N4'
_cell_volume   168.31044972
_cell_formula_units_Z   4
loop_
 _symmetry_equiv_pos_site_id
 _symmetry_equiv_pos_as_xyz
  1  'x, y, z'
  2  '-x, -y, -z'
  3  '-x, y+1/2, -z+1/2'
  4  'x, -y+1/2, z+1/2'
loop_
 _atom_site_type_symbol
 _atom_site_label
 _atom_site_symmetry_multiplicity
 _atom_site_fract_x
 _atom_site_fract_y
 _atom_site_fract_z
 _atom_site_occupancy
  S  S0  4  0.7755212650013724  0.4800730037732723  0.19000853240540816  1
  N  N1  4  0.9243280842499784  0.6176676522295268  0.28504671365301093  1
