# generated using pymatgen
data_Bi2Se
_symmetry_space_group_name_H-M   P2_1/c
_cell_length_a   7.49479603
_cell_length_b   11.85979620
_cell_length_c   4.26891333
_cell_angle_alpha   90.00000000
_cell_angle_beta   105.42634741
_cell_angle_gamma   90.00000000
_symmetry_Int_Tables_number   14
_chemical_formula_structural   Bi2Se
_chemical_formula_sum   'Bi8 Se4'
_cell_volume   365.77947775
_cell_formula_units_Z   4
loop_
 _symmetry_equiv_pos_site_id
 _symmetry_equiv_pos_as_xyz
  1  'x, y, z'
  2  '-x, -y, -z'
  3  '-x, y+1/2, -z+1/2'
  4  'x, -y+1/2, z+1/2'
loop_
 _atom_site_type_symbol
 _atom_site_label
 _atom_site_symmetry_multiplicity
 _atom_site_fract_x
 _atom_site_fract_y
 _atom_site_fract_z
 _atom_site_occupancy
  Bi  Bi0  4  0.7393668096131506  0.48982575985967647  0.8315409293839009  1
  Bi  Bi1  4  0.02094215298486335  0.010401855630765122  0.9323313518266757  1
  Se  Se2  4  0.6312839720114058  0.3078479565032497  0.27924489582859835  1
