# generated using pymatgen
data_SiO2
_symmetry_space_group_name_H-M   P3_221
_cell_length_a   4.98530291
_cell_length_b   4.98530291
_cell_length_c   5.47852971
_cell_angle_alpha   91.000
_cell_angle_beta   91.000
_cell_angle_gamma   121.000
_symmetry_Int_Tables_number   154
_chemical_formula_structural   SiO2
_chemical_formula_sum   'Si3 O6'
_cell_volume   117.91736228
_cell_formula_units_Z   3
loop_
 _symmetry_equiv_pos_site_id
 _symmetry_equiv_pos_as_xyz
  1  'x, y, z'
  2  '-y, x-y, z+2/3'
  3  '-x+y, -x, z+1/3'
  4  'y, x, -z'
  5  'x-y, -y, -z+1/3'
  6  '-x, -x+y, -z+2/3'
loop_
 _atom_site_type_symbol
 _atom_site_label
 _atom_site_symmetry_multiplicity
 _atom_site_fract_x
 _atom_site_fract_y
 _atom_site_fract_z
 _atom_site_occupancy
  Si  Si0  3  1.0  0.0  1.0  1
  O  O1  6  1.0  1.0  0.17991250889036503  1
