# generated using pymatgen
data_BN
_symmetry_space_group_name_H-M   P2_1/c
_cell_length_a   3.82308522
_cell_length_b   4.93772360
_cell_length_c   4.94098336
_cell_angle_alpha   90.00000000
_cell_angle_beta   112.59030586
_cell_angle_gamma   90.00000000
_symmetry_Int_Tables_number   14
_chemical_formula_structural   BN
_chemical_formula_sum   'B4 N4'
_cell_volume   86.11629310
_cell_formula_units_Z   4
loop_
 _symmetry_equiv_pos_site_id
 _symmetry_equiv_pos_as_xyz
  1  'x, y, z'
  2  '-x, -y, -z'
  3  '-x, y+1/2, -z+1/2'
  4  'x, -y+1/2, z+1/2'
loop_
 _atom_site_type_symbol
 _atom_site_label
 _atom_site_symmetry_multiplicity
 _atom_site_fract_x
 _atom_site_fract_y
 _atom_site_fract_z
 _atom_site_occupancy
  B  B0  4  0.27242750716430264  0.04437402714078423  0.7415052945468416  1
  N  N1  4  0.19896792589617016  0.2329620849556814  0.23401605636873957  1
