# generated using pymatgen
data_Mg2Si3
_symmetry_space_group_name_H-M   P1
_cell_length_a   3.55234968
_cell_length_b   6.06918569
_cell_length_c   17.98006189
_cell_angle_alpha   94.84886471
_cell_angle_beta   94.39972220
_cell_angle_gamma   106.99883576
_symmetry_Int_Tables_number   1
_chemical_formula_structural   Mg2Si3
_chemical_formula_sum   'Mg8 Si12'
_cell_volume   367.28654807
_cell_formula_units_Z   4
loop_
 _symmetry_equiv_pos_site_id
 _symmetry_equiv_pos_as_xyz
  1  'x, y, z'
loop_
 _atom_site_type_symbol
 _atom_site_label
 _atom_site_symmetry_multiplicity
 _atom_site_fract_x
 _atom_site_fract_y
 _atom_site_fract_z
 _atom_site_occupancy
  Mg  Mg0  1  0.1439198838048733  0.6837960322833198  0.9151336582210203  1
  Mg  Mg1  1  0.19928677247775717  0.3489644111634099  0.7194693129747433  1
  Mg  Mg2  1  0.5391262155664812  0.7268496126992924  0.8326023887452217  1
  Mg  Mg3  1  0.40963549457186665  0.9524827648228119  0.3983435210315419  1
  Mg  Mg4  1  0.5524998241955266  0.26173267714527126  0.0362438851164083  1
  Mg  Mg5  1  0.3232036107687436  0.19919660896017122  0.0758915712654924  1
  Mg  Mg6  1  0.06490768138665148  0.7312622094276536  0.9801566192844339  1
  Mg  Mg7  1  0.20907969141121852  0.00965610836917652  0.8298662250038878  1
  Si  Si8  1  0.5232743686435091  0.16724519706205154  0.5781567266366906  1
  Si  Si9  1  0.3195237707365781  0.3677964927483054  0.28749869885655455  1
  Si  Si10  1  0.4399743418094033  0.970301017079475  0.9142157841411538  1
  Si  Si11  1  0.6762068224973817  0.6376918332860971  0.05862783580718223  1
  Si  Si12  1  0.6775399014849554  0.21572434650114647  0.3197693024525241  1
  Si  Si13  1  0.42005038530738414  0.34919757913696436  0.8828381082233931  1
  Si  Si14  1  0.714946266641194  0.8291940452583382  0.20780536502697344  1
  Si  Si15  1  0.49929778114949497  0.8274801760073613  0.04950057817313602  1
  Si  Si16  1  0.22795368626472778  0.3704988324139338  0.19129772928657185  1
  Si  Si17  1  0.18399661910474385  0.014133955658501063  0.18432191808235387  1
  Si  Si18  1  0.7239192085474077  0.25028055292487805  0.9958586175005635  1
  Si  Si19  1  0.9446563949929871  0.01745268654079879  0.21209842528661593  1
