# generated using pymatgen
data_CrN2
_symmetry_space_group_name_H-M   P1
_cell_length_a   4.99244259
_cell_length_b   5.06494891
_cell_length_c   6.85465626
_cell_angle_alpha   78.99632385
_cell_angle_beta   89.61720457
_cell_angle_gamma   70.15890499
_symmetry_Int_Tables_number   1
_chemical_formula_structural   CrN2
_chemical_formula_sum   'Cr4 N8'
_cell_volume   159.72604489
_cell_formula_units_Z   4
loop_
 _symmetry_equiv_pos_site_id
 _symmetry_equiv_pos_as_xyz
  1  'x, y, z'
loop_
 _atom_site_type_symbol
 _atom_site_label
 _atom_site_symmetry_multiplicity
 _atom_site_fract_x
 _atom_site_fract_y
 _atom_site_fract_z
 _atom_site_occupancy
  Cr  Cr0  1  0.007901968321605501  0.16379580044385356  0.5094056619516919  1
  Cr  Cr1  1  0.30277407849505245  0.6826285501657768  0.0765381115593442  1
  Cr  Cr2  1  0.9796914461318327  0.36511959981244646  0.8438698897125059  1
  Cr  Cr3  1  0.20651100174336723  0.8402740806431481  0.21366467062062167  1
  N  N4  1  0.044122361715926206  0.3607631802596012  0.9039535064996106  1
  N  N5  1  0.6968499516532644  0.3766098446640992  0.907390403305574  1
  N  N6  1  0.9698217345741329  0.7958724437441874  0.891167421501967  1
  N  N7  1  0.40425149523816006  0.008564394466437086  0.6197036405192333  1
  N  N8  1  0.5319583252676544  0.21773217152520685  0.89156643524902  1
  N  N9  1  0.1327820027061598  0.2974245116527523  0.762701454047566  1
  N  N10  1  0.6703488752324043  0.3604892962289602  0.5684351936940818  1
  N  N11  1  0.5978443038446012  0.8946670668429604  0.9091916001136945  1
