# generated using pymatgen
data_NiS2
_symmetry_space_group_name_H-M   P2_1/c
_cell_length_a   4.19060790
_cell_length_b   5.25011696
_cell_length_c   5.34301527
_cell_angle_alpha   91.000
_cell_angle_beta   114.64932592
_cell_angle_gamma   91.000
_symmetry_Int_Tables_number   14
_chemical_formula_structural   NiS2
_chemical_formula_sum   'Ni2 S4'
_cell_volume   106.84094557
_cell_formula_units_Z   2
loop_
 _symmetry_equiv_pos_site_id
 _symmetry_equiv_pos_as_xyz
  1  'x, y, z'
  2  '-x, -y, -z'
  3  '-x, y+1/2, -z+1/2'
  4  'x, -y+1/2, z+1/2'
loop_
 _atom_site_type_symbol
 _atom_site_label
 _atom_site_symmetry_multiplicity
 _atom_site_fract_x
 _atom_site_fract_y
 _atom_site_fract_z
 _atom_site_occupancy
  Ni  Ni0  2  1.0  1.0  1.0  1
  S  S1  4  0.5874626494148831  0.1298077205768675  0.3657219702598711  1
