# generated using pymatgen
data_Mg2Si3
_symmetry_space_group_name_H-M   P1
_cell_length_a   4.08293565
_cell_length_b   5.36773087
_cell_length_c   17.44594037
_cell_angle_alpha   84.52857997
_cell_angle_beta   84.17356724
_cell_angle_gamma   69.61271166
_symmetry_Int_Tables_number   1
_chemical_formula_structural   Mg2Si3
_chemical_formula_sum   'Mg8 Si12'
_cell_volume   355.80658097
_cell_formula_units_Z   4
loop_
 _symmetry_equiv_pos_site_id
 _symmetry_equiv_pos_as_xyz
  1  'x, y, z'
loop_
 _atom_site_type_symbol
 _atom_site_label
 _atom_site_symmetry_multiplicity
 _atom_site_fract_x
 _atom_site_fract_y
 _atom_site_fract_z
 _atom_site_occupancy
  Mg  Mg0  1  0.07007795245534532  0.9113515605153886  0.1771086025485118  1
  Mg  Mg1  1  0.7734757628487283  0.5277898938630886  0.0890190140351832  1
  Mg  Mg2  1  0.1581508167727499  0.3411554867704095  0.2742185187292221  1
  Mg  Mg3  1  0.5809089658538539  0.7295572022049932  0.05643080966602387  1
  Mg  Mg4  1  0.784010776825347  0.7226989387116725  0.29438975847575244  1
  Mg  Mg5  1  0.5018224442871083  0.12489731724564435  0.9017812412431138  1
  Mg  Mg6  1  0.014068024858142736  0.5829351765215002  0.2710992632317297  1
  Mg  Mg7  1  0.29962604803784054  0.2742159332567957  0.2416041326733812  1
  Si  Si8  1  0.5198276011864565  0.8533029236758333  0.0980605879384665  1
  Si  Si9  1  0.578355281248015  0.02877132849235542  0.5404898928758695  1
  Si  Si10  1  0.31875755755914925  0.778172406836335  0.3701960209130343  1
  Si  Si11  1  0.57768673500687  0.36388441439616226  0.29970298626397984  1
  Si  Si12  1  0.42826474268738657  0.3408520246670689  0.6017376847420611  1
  Si  Si13  1  0.4364647232767723  0.5223334670464396  0.4615415891328216  1
  Si  Si14  1  0.42354110247750665  0.7022678799977387  0.13338990334128997  1
  Si  Si15  1  0.4311471738099344  0.16198137287521253  0.9440400476797337  1
  Si  Si16  1  0.1074264003780454  0.9314363383012786  0.3556566336820358  1
  Si  Si17  1  0.9635053628641197  0.18508449135742533  0.5938750949593912  1
  Si  Si18  1  0.5276208303845961  0.9812796665283748  0.5725821742458552  1
  Si  Si19  1  0.49085733088376926  0.274113617513114  0.6435720417187416  1
