# generated using pymatgen
data_Mg2Si3
_symmetry_space_group_name_H-M   P1
_cell_length_a   3.73470698
_cell_length_b   5.82426012
_cell_length_c   18.26657605
_cell_angle_alpha   89.55171975
_cell_angle_beta   87.43420896
_cell_angle_gamma   89.31978921
_symmetry_Int_Tables_number   1
_chemical_formula_structural   Mg2Si3
_chemical_formula_sum   'Mg8 Si12'
_cell_volume   396.89594180
_cell_formula_units_Z   4
loop_
 _symmetry_equiv_pos_site_id
 _symmetry_equiv_pos_as_xyz
  1  'x, y, z'
loop_
 _atom_site_type_symbol
 _atom_site_label
 _atom_site_symmetry_multiplicity
 _atom_site_fract_x
 _atom_site_fract_y
 _atom_site_fract_z
 _atom_site_occupancy
  Mg  Mg0  1  0.7506712694175838  0.7759386728986828  0.9433513805152878  1
  Mg  Mg1  1  0.5305961623357393  0.9226144247217789  0.4116240358245654  1
  Mg  Mg2  1  0.7392977467991158  0.17921988132449707  0.3360388333026717  1
  Mg  Mg3  1  0.2462351773316651  0.15072393980728838  0.5106544699786076  1
  Mg  Mg4  1  0.2822088467530288  0.5935180171029147  0.9023773127136341  1
  Mg  Mg5  1  0.491081451298899  0.24056721513060386  0.9702286885983411  1
  Mg  Mg6  1  0.1136631690078288  0.12609227390678768  0.03830281669380309  1
  Mg  Mg7  1  0.7550498988029244  0.4560969563465712  0.42020230481922394  1
  Si  Si8  1  0.11168001474336509  0.22665642576591394  0.21013043914176954  1
  Si  Si9  1  0.8571883278587182  0.7071173738447158  0.8920808753424734  1
  Si  Si10  1  0.688830730875783  0.8641493427574731  0.9362410032417545  1
  Si  Si11  1  0.5764659054867569  0.864951739077838  0.3980613820178699  1
  Si  Si12  1  0.23000648261223577  0.12622684136589957  0.4844178589216004  1
  Si  Si13  1  0.29659975937943117  0.06668094547151648  0.25578450756279214  1
  Si  Si14  1  0.1879242631134873  0.44295320856645226  0.47577503196990223  1
  Si  Si15  1  0.16904974837703002  0.5428373219527668  0.30053882557133715  1
  Si  Si16  1  0.12736134778669195  0.525669710295835  0.4514657221565873  1
  Si  Si17  1  0.18758463565561456  0.19313055040259874  0.28636121786748714  1
  Si  Si18  1  0.9727163784409176  0.02217717040462197  0.124612209896382  1
  Si  Si19  1  0.6653794371169968  0.9296190265453128  0.4411435277804201  1
