# generated using pymatgen
data_Mg2Si3
_symmetry_space_group_name_H-M   P1
_cell_length_a   3.78373635
_cell_length_b   5.88871242
_cell_length_c   17.36904047
_cell_angle_alpha   93.78126958
_cell_angle_beta   92.91799293
_cell_angle_gamma   97.95639521
_symmetry_Int_Tables_number   1
_chemical_formula_structural   Mg2Si3
_chemical_formula_sum   'Mg8 Si12'
_cell_volume   381.73922274
_cell_formula_units_Z   4
loop_
 _symmetry_equiv_pos_site_id
 _symmetry_equiv_pos_as_xyz
  1  'x, y, z'
loop_
 _atom_site_type_symbol
 _atom_site_label
 _atom_site_symmetry_multiplicity
 _atom_site_fract_x
 _atom_site_fract_y
 _atom_site_fract_z
 _atom_site_occupancy
  Mg  Mg0  1  0.9563280605914513  0.9141399038753817  0.13063539520292822  1
  Mg  Mg1  1  0.8964512917545372  0.704018198293293  0.23113076373414676  1
  Mg  Mg2  1  0.4832466342321844  0.7838548767391623  0.8475022710054  1
  Mg  Mg3  1  0.9453347775359766  0.42037134582578684  0.7256331435892147  1
  Mg  Mg4  1  0.059480066943369936  0.8594684164576413  0.05681499684031377  1
  Mg  Mg5  1  0.5608004094865359  0.042983699209939163  0.6367952858994819  1
  Mg  Mg6  1  0.6696656555200695  0.062324582569874276  0.7659265760328728  1
  Mg  Mg7  1  0.44917182249309073  0.8561870703590199  0.33030740374264833  1
  Si  Si8  1  0.5345735219632076  0.8866435879854342  0.5079784516320811  1
  Si  Si9  1  0.9026323717872544  0.2149950346606968  0.6978354729373392  1
  Si  Si10  1  0.24899777757904284  0.376433620454387  0.29119612648502113  1
  Si  Si11  1  0.05095761390820763  0.25350511015389865  0.8085716578194885  1
  Si  Si12  1  0.38713606738684614  0.232759778385357  0.710890085952438  1
  Si  Si13  1  0.762904024347134  0.9294857913572676  0.04514088375958514  1
  Si  Si14  1  0.33314484107541087  0.19232372926467722  0.636741066277604  1
  Si  Si15  1  0.8655927660087234  0.4440278080144311  0.2113754393123699  1
  Si  Si16  1  0.44238264873745914  0.7799079556178706  0.1663396538250378  1
  Si  Si17  1  0.7231184719601473  0.9030130391948853  0.002543989565510607  1
  Si  Si18  1  0.3322940014570128  0.5431667537314896  0.4936082865940583  1
  Si  Si19  1  0.37882447848873546  0.48643389198521414  0.8938165049410634  1
