# generated using pymatgen
data_Mg2Si3
_symmetry_space_group_name_H-M   P1
_cell_length_a   3.95522385
_cell_length_b   5.87568086
_cell_length_c   16.42587716
_cell_angle_alpha   94.81267433
_cell_angle_beta   94.35922352
_cell_angle_gamma   97.50288419
_symmetry_Int_Tables_number   1
_chemical_formula_structural   Mg2Si3
_chemical_formula_sum   'Mg8 Si12'
_cell_volume   375.66480428
_cell_formula_units_Z   4
loop_
 _symmetry_equiv_pos_site_id
 _symmetry_equiv_pos_as_xyz
  1  'x, y, z'
loop_
 _atom_site_type_symbol
 _atom_site_label
 _atom_site_symmetry_multiplicity
 _atom_site_fract_x
 _atom_site_fract_y
 _atom_site_fract_z
 _atom_site_occupancy
  Mg  Mg0  1  0.4629624559252129  0.8520815869259847  0.9730060689252508  1
  Mg  Mg1  1  0.6062421674700814  0.7010770234275818  0.5765050267765053  1
  Mg  Mg2  1  0.6634788868885543  0.2539948649037861  0.9670172699701773  1
  Mg  Mg3  1  0.5350381136411819  0.5915208539652839  0.5611589810953315  1
  Mg  Mg4  1  0.9550771674654107  0.5049493530670163  0.20866221775768212  1
  Mg  Mg5  1  0.6413721484033426  0.6573247044076039  0.8800389176139105  1
  Mg  Mg6  1  0.45235401618876936  0.5697962967050904  0.12333234497941792  1
  Mg  Mg7  1  0.17614606534186272  0.7398754345551574  0.46753631987680033  1
  Si  Si8  1  0.7964927672940358  0.7616763426620166  0.9188166223624283  1
  Si  Si9  1  0.4153240296042745  0.48909765846710695  0.2577183586609012  1
  Si  Si10  1  0.8006045242012125  0.3713267555650207  0.052066159131260115  1
  Si  Si11  1  0.39315790143116536  0.5206595073347677  0.6404727840409342  1
  Si  Si12  1  0.34342172448601793  0.342193760636192  0.8256211049362865  1
  Si  Si13  1  0.8587059813871095  0.6255980497169178  0.38367059808909565  1
  Si  Si14  1  0.5609491816798208  0.7345547593080198  0.24389778050621236  1
  Si  Si15  1  0.08877053571220417  0.5292869965807196  0.5627643426699471  1
  Si  Si16  1  0.005954163584443228  0.053316294424620714  0.25794681183823653  1
  Si  Si17  1  0.5316393395669603  0.849714715772712  0.7535027605248825  1
  Si  Si18  1  0.2508074514181259  0.3427574043366528  0.5353872426705222  1
  Si  Si19  1  0.3264395795681635  0.7013541220022177  0.47812723594606854  1
