# generated using pymatgen
data_CeSe2
_symmetry_space_group_name_H-M   P2_1/c
_cell_length_a   9.07308251
_cell_length_b   19.61175074
_cell_length_c   8.61213541
_cell_angle_alpha   90.00000000
_cell_angle_beta   95.16157954
_cell_angle_gamma   90.00000000
_symmetry_Int_Tables_number   14
_chemical_formula_structural   CeSe2
_chemical_formula_sum   'Ce16 Se32'
_cell_volume   1526.22094319
_cell_formula_units_Z   16
loop_
 _symmetry_equiv_pos_site_id
 _symmetry_equiv_pos_as_xyz
  1  'x, y, z'
  2  '-x, -y, -z'
  3  '-x, y+1/2, -z+1/2'
  4  'x, -y+1/2, z+1/2'
loop_
 _atom_site_type_symbol
 _atom_site_label
 _atom_site_symmetry_multiplicity
 _atom_site_fract_x
 _atom_site_fract_y
 _atom_site_fract_z
 _atom_site_occupancy
  Ce  Ce0  4  0.8726237468109345  0.38506017662959724  0.6356446330155072  1
  Ce  Ce1  4  0.5044520920540789  0.2390239316423249  0.8965928098900068  1
  Ce  Ce2  4  0.25479752576346604  0.3513119286531796  0.838253134545594  1
  Ce  Ce3  4  0.8490706593994356  0.2782137298867524  0.27546867394708224  1
  Se  Se4  4  0.143977593831113  0.07796423700327991  0.5546531596440553  1
  Se  Se5  4  0.07703229997734715  0.2276973864944528  0.3979742805160791  1
  Se  Se6  4  0.8727674075064292  0.5900080192511216  0.5303158237128135  1
  Se  Se7  4  0.48445099315174933  0.2993987213902  0.8029477020739227  1
  Se  Se8  4  0.7189006454497597  0.22759896661323514  0.3960954194087704  1
  Se  Se9  4  0.2029835200514618  0.8732262095487653  0.2708981368436758  1
  Se  Se10  4  0.7068546066919502  0.3342558267338501  0.42902397850424207  1
  Se  Se11  4  0.8756287381322333  0.28986508675865924  0.6881544162959032  1
