# generated using pymatgen
data_AgCl
_symmetry_space_group_name_H-M   P2_1/m
_cell_length_a   3.92687939
_cell_length_b   4.00304724
_cell_length_c   5.59941886
_cell_angle_alpha   90.00000000
_cell_angle_beta   95.62824698
_cell_angle_gamma   90.00000000
_symmetry_Int_Tables_number   11
_chemical_formula_structural   AgCl
_chemical_formula_sum   'Ag2 Cl2'
_cell_volume   87.59564440
_cell_formula_units_Z   2
loop_
 _symmetry_equiv_pos_site_id
 _symmetry_equiv_pos_as_xyz
  1  'x, y, z'
  2  '-x, -y, -z'
  3  '-x, y+1/2, -z'
  4  'x, -y+1/2, z'
loop_
 _atom_site_type_symbol
 _atom_site_label
 _atom_site_symmetry_multiplicity
 _atom_site_fract_x
 _atom_site_fract_y
 _atom_site_fract_z
 _atom_site_occupancy
  Ag  Ag0  2  0.33656712392372634  0.998537778767215  0.47069832507957965  1
  Cl  Cl1  2  0.0567219887210124  0.998537778767215  0.25975509046048467  1
