# generated using pymatgen
data_Te2Mo
_symmetry_space_group_name_H-M   P2_1/m
_cell_length_a   6.38513239
_cell_length_b   3.45986367
_cell_length_c   36.46140464
_cell_angle_alpha   90.00000000
_cell_angle_beta   90.00309689
_cell_angle_gamma   90.00000000
_symmetry_Int_Tables_number   11
_chemical_formula_structural   Te2Mo
_chemical_formula_sum   'Te4 Mo2'
_cell_volume   805.49395906
_cell_formula_units_Z   2
loop_
 _symmetry_equiv_pos_site_id
 _symmetry_equiv_pos_as_xyz
  1  'x, y, z'
  2  '-x, -y, -z'
  3  '-x, y+1/2, -z'
  4  'x, -y+1/2, z'
loop_
 _atom_site_type_symbol
 _atom_site_label
 _atom_site_symmetry_multiplicity
 _atom_site_fract_x
 _atom_site_fract_y
 _atom_site_fract_z
 _atom_site_occupancy
  Te  Te0  2  0.8313538927646812  0.028392316603202617  0.6655805507648319  1
  Te  Te1  2  0.97062825981547  0.028392316603202617  0.6398702049178007  1
  Mo  Mo2  2  0.371277533249708  0.02122104294425505  0.17096895998531342  1
