# generated using pymatgen
data_Mg2Si3
_symmetry_space_group_name_H-M   P1
_cell_length_a   3.68235218
_cell_length_b   6.04856267
_cell_length_c   17.70373359
_cell_angle_alpha   87.23356825
_cell_angle_beta   84.58930607
_cell_angle_gamma   73.72584981
_symmetry_Int_Tables_number   1
_chemical_formula_structural   Mg2Si3
_chemical_formula_sum   'Mg8 Si12'
_cell_volume   376.72977250
_cell_formula_units_Z   4
loop_
 _symmetry_equiv_pos_site_id
 _symmetry_equiv_pos_as_xyz
  1  'x, y, z'
loop_
 _atom_site_type_symbol
 _atom_site_label
 _atom_site_symmetry_multiplicity
 _atom_site_fract_x
 _atom_site_fract_y
 _atom_site_fract_z
 _atom_site_occupancy
  Mg  Mg0  1  0.10603036096062501  0.04200267614861097  0.15633544669757526  1
  Mg  Mg1  1  0.46854132420333106  0.490897280256375  0.6170111125908155  1
  Mg  Mg2  1  0.11435226334062398  0.0897388900295053  0.44337028854551375  1
  Mg  Mg3  1  0.4848667636762579  0.9054967833174333  0.783530153727943  1
  Mg  Mg4  1  0.9433274474833652  0.3179946861732874  0.9332623507940186  1
  Mg  Mg5  1  0.3144687260480248  0.8824185068278377  0.6026058311851342  1
  Mg  Mg6  1  0.014126599212977098  0.310497460878436  0.6585846450895033  1
  Mg  Mg7  1  0.19167436753205347  0.8804010296551489  0.7268001372178747  1
  Si  Si8  1  0.37324547151972143  0.7312690753232891  0.8908666439019267  1
  Si  Si9  1  0.34796268580269873  0.4068236671389358  0.1542287295359277  1
  Si  Si10  1  0.36507733994958036  0.23296358883218682  0.40252128077495797  1
  Si  Si11  1  0.2934306028381153  0.3963002616369794  0.2093983898722095  1
  Si  Si12  1  0.660366728764433  0.15640570473045678  0.6174734810288796  1
  Si  Si13  1  0.4020157953281994  0.20779341394840667  0.3651053550819068  1
  Si  Si14  1  0.8043229492245754  0.2600485210680282  0.6691554887000472  1
  Si  Si15  1  0.6591888824683062  0.4430023044757395  0.6530859226575546  1
  Si  Si16  1  0.9317938116570157  0.6942567120038776  0.181149123954354  1
  Si  Si17  1  0.2537890431359723  0.449726787517846  0.7720694642159033  1
  Si  Si18  1  0.7930418282997235  0.19596865384739026  0.21336271726414424  1
  Si  Si19  1  0.3145918865889863  0.5265504491639863  0.06190119134631056  1
