# generated using pymatgen
data_Mg2Si3
_symmetry_space_group_name_H-M   P1
_cell_length_a   3.76916397
_cell_length_b   6.15921978
_cell_length_c   17.40785991
_cell_angle_alpha   83.28809024
_cell_angle_beta   83.92262531
_cell_angle_gamma   72.80973553
_symmetry_Int_Tables_number   1
_chemical_formula_structural   Mg2Si3
_chemical_formula_sum   'Mg8 Si12'
_cell_volume   382.34143588
_cell_formula_units_Z   4
loop_
 _symmetry_equiv_pos_site_id
 _symmetry_equiv_pos_as_xyz
  1  'x, y, z'
loop_
 _atom_site_type_symbol
 _atom_site_label
 _atom_site_symmetry_multiplicity
 _atom_site_fract_x
 _atom_site_fract_y
 _atom_site_fract_z
 _atom_site_occupancy
  Mg  Mg0  1  0.342865125948581  0.320976151726734  0.7360227450374875  1
  Mg  Mg1  1  0.6132428767829102  0.4845957558422824  0.5273392008373835  1
  Mg  Mg2  1  0.7030213915457999  0.6413121022006203  0.5936408269412502  1
  Mg  Mg3  1  0.812130652077091  0.3547978379827845  0.5713649926179065  1
  Mg  Mg4  1  0.23032128189529943  0.6525962677132737  0.5129826795987054  1
  Mg  Mg5  1  0.15361476857289236  0.6076393593503354  0.4580587635999839  1
  Mg  Mg6  1  0.9843876274222052  0.5148091656284649  0.6195900149532722  1
  Mg  Mg7  1  0.8655339926034026  0.909090211666784  0.06575749362595484  1
  Si  Si8  1  0.4184753767347499  0.21082926168557792  0.518863302052274  1
  Si  Si9  1  0.46927193247737453  0.8770019254171602  0.1734856769553359  1
  Si  Si10  1  0.2688087102192117  0.16503642652460115  0.8684993743173738  1
  Si  Si11  1  0.13643233885269346  0.41468961801485116  0.5932476184307818  1
  Si  Si12  1  0.8306087120107115  0.6632207209656984  0.24874412762764297  1
  Si  Si13  1  0.527477532522179  0.9028191532469381  0.18820178240413254  1
  Si  Si14  1  0.6101724201186504  0.7718051797184303  0.5080688668253667  1
  Si  Si15  1  0.8757164644435671  0.8624378586908319  0.10834184196673191  1
  Si  Si16  1  0.37140849111489427  0.5193643991341491  0.0468686143557594  1
  Si  Si17  1  0.026272531200298266  0.406949968721817  0.688633798456242  1
  Si  Si18  1  0.7414258968896124  0.7992933913666347  0.5665594842351466  1
  Si  Si19  1  0.12303702693993457  0.8685521387451399  0.43328496006937545  1
