# generated using pymatgen
data_Rb2O2
_symmetry_space_group_name_H-M   P2_1/m
_cell_length_a   4.05765771
_cell_length_b   4.32765232
_cell_length_c   5.89559012
_cell_angle_alpha   90.00000000
_cell_angle_beta   96.51294727
_cell_angle_gamma   90.00000000
_symmetry_Int_Tables_number   11
_chemical_formula_structural   Rb2O2
_chemical_formula_sum   'Rb2 O2'
_cell_volume   102.85919999
_cell_formula_units_Z   1
loop_
 _symmetry_equiv_pos_site_id
 _symmetry_equiv_pos_as_xyz
  1  'x, y, z'
  2  '-x, -y, -z'
  3  '-x, y+1/2, -z'
  4  'x, -y+1/2, z'
loop_
 _atom_site_type_symbol
 _atom_site_label
 _atom_site_symmetry_multiplicity
 _atom_site_fract_x
 _atom_site_fract_y
 _atom_site_fract_z
 _atom_site_occupancy
  Rb  Rb0  2  0.41736176117430696  0.5214563918981786  0.7463484255283133  1
  O  O1  2  0.22642339625498034  0.5214563918981786  0.4408919477994411  1
