# generated using pymatgen
data_CoAs2
_symmetry_space_group_name_H-M   P2_1/c
_cell_length_a   5.93826464
_cell_length_b   5.89121276
_cell_length_c   5.99373607
_cell_angle_alpha   90.00000000
_cell_angle_beta   116.00270481
_cell_angle_gamma   90.00000000
_symmetry_Int_Tables_number   14
_chemical_formula_structural   CoAs2
_chemical_formula_sum   'Co4 As8'
_cell_volume   188.45690644
_cell_formula_units_Z   4
loop_
 _symmetry_equiv_pos_site_id
 _symmetry_equiv_pos_as_xyz
  1  'x, y, z'
  2  '-x, -y, -z'
  3  '-x, y+1/2, -z+1/2'
  4  'x, -y+1/2, z+1/2'
loop_
 _atom_site_type_symbol
 _atom_site_label
 _atom_site_symmetry_multiplicity
 _atom_site_fract_x
 _atom_site_fract_y
 _atom_site_fract_z
 _atom_site_occupancy
  Co  Co0  4  0.0  0.6368538073920339  0.13288438176100226  1
  As  As1  4  0.9704668834225583  0.0  0.17112906825820673  1
  As  As2  4  0.09080704256650438  0.0  0.0  1
