# generated using pymatgen
data_BS2
_symmetry_space_group_name_H-M   P2_1/c
_cell_length_a   12.45863338
_cell_length_b   4.92292777
_cell_length_c   21.91559155
_cell_angle_alpha   90.00000000
_cell_angle_beta   107.87091956
_cell_angle_gamma   90.00000000
_symmetry_Int_Tables_number   14
_chemical_formula_structural   BS2
_chemical_formula_sum   'B16 S32'
_cell_volume   1279.29316888
_cell_formula_units_Z   16
loop_
 _symmetry_equiv_pos_site_id
 _symmetry_equiv_pos_as_xyz
  1  'x, y, z'
  2  '-x, -y, -z'
  3  '-x, y+1/2, -z+1/2'
  4  'x, -y+1/2, z+1/2'
loop_
 _atom_site_type_symbol
 _atom_site_label
 _atom_site_symmetry_multiplicity
 _atom_site_fract_x
 _atom_site_fract_y
 _atom_site_fract_z
 _atom_site_occupancy
  B  B0  4  0.37490576906352907  0.24575867940599233  0.6627658823669123  1
  B  B1  4  0.3859937648084771  0.2744435127141615  0.45645812233224436  1
  B  B2  4  0.7447087725307787  0.21922118004706317  0.30165588599711607  1
  B  B3  4  0.03571553945414769  0.24966063972652663  0.8372427305745629  1
  S  S4  4  0.6483347108821976  0.32194528193251076  0.4607850706760849  1
  S  S5  4  0.34695823459365605  0.8065884267099568  0.46923895840731233  1
  S  S6  4  0.1690078942837239  0.42756920923149816  0.5382667857661332  1
  S  S7  4  0.49733017006575725  0.2532461935615033  0.6903646843745613  1
  S  S8  4  0.26939579901295474  0.25169611633196076  0.4083121661528879  1
  S  S9  4  0.6370208836853424  0.2669492382813581  0.7345498801237812  1
  S  S10  4  0.887516546395452  0.24490286468103759  0.30405370644026775  1
  S  S11  4  0.12971926682487292  0.17950984371926157  0.8483556908202992  1
