# generated using pymatgen
data_Mg2Si3
_symmetry_space_group_name_H-M   P1
_cell_length_a   3.84062730
_cell_length_b   5.25389375
_cell_length_c   19.55847282
_cell_angle_alpha   93.13878908
_cell_angle_beta   94.69253918
_cell_angle_gamma   110.97132803
_symmetry_Int_Tables_number   1
_chemical_formula_structural   Mg2Si3
_chemical_formula_sum   'Mg8 Si12'
_cell_volume   365.77791983
_cell_formula_units_Z   4
loop_
 _symmetry_equiv_pos_site_id
 _symmetry_equiv_pos_as_xyz
  1  'x, y, z'
loop_
 _atom_site_type_symbol
 _atom_site_label
 _atom_site_symmetry_multiplicity
 _atom_site_fract_x
 _atom_site_fract_y
 _atom_site_fract_z
 _atom_site_occupancy
  Mg  Mg0  1  0.9861481307974499  0.04107843683570733  0.5815821196524652  1
  Mg  Mg1  1  0.6092941806866414  0.7239305075388129  0.6539076566548515  1
  Mg  Mg2  1  0.721979546362295  0.5392507238662937  0.8716057273311185  1
  Mg  Mg3  1  0.04898617420998963  0.6206933793831518  0.28921912522560034  1
  Mg  Mg4  1  0.481978229136238  0.5965343630625919  0.27330704603389444  1
  Mg  Mg5  1  0.49909505877308336  0.3005835693566724  0.8475895145288124  1
  Mg  Mg6  1  0.49064200830557325  0.9339717935577693  0.4059134197592982  1
  Mg  Mg7  1  0.19068255644404142  0.6823582385955068  0.8724449456686412  1
  Si  Si8  1  0.4365366425532202  0.0784465957423377  0.5411873738586249  1
  Si  Si9  1  0.6699880763948499  0.35425556785421186  0.7770641103360652  1
  Si  Si10  1  0.8538908609054292  0.5057582767496837  0.7872951059615535  1
  Si  Si11  1  0.7509556974174403  0.38166805333356657  0.46139647110611104  1
  Si  Si12  1  0.7220307122736138  0.8129911764614636  0.49579948552390685  1
  Si  Si13  1  0.8313419658023884  0.9929207022278445  0.5913226799881343  1
  Si  Si14  1  0.7868146599636887  0.6367861248684251  0.532306807005115  1
  Si  Si15  1  0.9777894503313302  0.7767508200823666  0.06823735887688165  1
  Si  Si16  1  0.12180701324268306  0.497683011961083  0.5375160639731529  1
  Si  Si17  1  0.08840340906505118  0.2380221761864254  0.5142346558104716  1
  Si  Si18  1  0.4666028782335734  0.8447667685622667  0.5536685115308414  1
  Si  Si19  1  0.21777336424937532  0.8468333911911569  0.1401065592228653  1
