# generated using pymatgen
data_CrN2
_symmetry_space_group_name_H-M   P1
_cell_length_a   5.27094334
_cell_length_b   5.61738098
_cell_length_c   7.52522885
_cell_angle_alpha   70.56572236
_cell_angle_beta   73.78247625
_cell_angle_gamma   87.18174948
_symmetry_Int_Tables_number   1
_chemical_formula_structural   CrN2
_chemical_formula_sum   'Cr4 N8'
_cell_volume   201.52195424
_cell_formula_units_Z   4
loop_
 _symmetry_equiv_pos_site_id
 _symmetry_equiv_pos_as_xyz
  1  'x, y, z'
loop_
 _atom_site_type_symbol
 _atom_site_label
 _atom_site_symmetry_multiplicity
 _atom_site_fract_x
 _atom_site_fract_y
 _atom_site_fract_z
 _atom_site_occupancy
  Cr  Cr0  1  0.9021187962364433  0.6533779295312124  0.8112106210714949  1
  Cr  Cr1  1  0.7703654033163431  0.8626742877170019  0.5699197989654421  1
  Cr  Cr2  1  0.34352119824416627  0.4995742141946682  0.6440272119061478  1
  Cr  Cr3  1  0.49351087173884345  0.10311103481716125  0.9207776737676664  1
  N  N4  1  0.867464594093835  0.5550014111400492  0.615678287486928  1
  N  N5  1  0.751613542533728  0.7753693327527841  0.900366598389542  1
  N  N6  1  0.3013413132036515  0.6069738034590365  0.7026821793724405  1
  N  N7  1  0.9807816136349209  0.08374017976165889  0.2908258611456073  1
  N  N8  1  0.3916980261622683  0.1709619266368107  0.6835170795629668  1
  N  N9  1  0.4761715219123078  0.25710429293538883  0.14643348136147746  1
  N  N10  1  0.23728378041289927  0.6239677443485108  0.8539323719699604  1
  N  N11  1  0.5762090430384303  0.13077069108311482  0.5928575749908432  1
