# generated using pymatgen
data_SbS
_symmetry_space_group_name_H-M   P-1
_cell_length_a   3.86944013
_cell_length_b   5.00789087
_cell_length_c   10.36245136
_cell_angle_alpha   83.90736683
_cell_angle_beta   87.93891616
_cell_angle_gamma   89.41854766
_symmetry_Int_Tables_number   2
_chemical_formula_structural   SbS
_chemical_formula_sum   'Sb2 S2'
_cell_volume   199.53339811
_cell_formula_units_Z   2
loop_
 _symmetry_equiv_pos_site_id
 _symmetry_equiv_pos_as_xyz
  1  'x, y, z'
  2  '-x, -y, -z'
loop_
 _atom_site_type_symbol
 _atom_site_label
 _atom_site_symmetry_multiplicity
 _atom_site_fract_x
 _atom_site_fract_y
 _atom_site_fract_z
 _atom_site_occupancy
  Sb  Sb0  2  0.7394216501368076  0.39749821409572444  0.609705007654727  1
  S  S1  2  0.614720917625482  0.5159452865091138  0.3342119058496896  1
