# generated using pymatgen
data_PBr
_symmetry_space_group_name_H-M   P-1
_cell_length_a   4.93856344
_cell_length_b   5.58894040
_cell_length_c   6.30605961
_cell_angle_alpha   93.18626463
_cell_angle_beta   96.34378329
_cell_angle_gamma   111.65474457
_symmetry_Int_Tables_number   2
_chemical_formula_structural   PBr
_chemical_formula_sum   'P2 Br2'
_cell_volume   159.90391178
_cell_formula_units_Z   2
loop_
 _symmetry_equiv_pos_site_id
 _symmetry_equiv_pos_as_xyz
  1  'x, y, z'
  2  '-x, -y, -z'
loop_
 _atom_site_type_symbol
 _atom_site_label
 _atom_site_symmetry_multiplicity
 _atom_site_fract_x
 _atom_site_fract_y
 _atom_site_fract_z
 _atom_site_occupancy
  P  P0  2  0.017939807053792896  0.45056298080462104  0.5440450634983219  1
  Br  Br1  2  0.8341480990736544  0.40263714806062867  0.19302625614561178  1
