# generated using pymatgen
data_CeSe2
_symmetry_space_group_name_H-M   Pca2_1
_cell_length_a   7.16172657
_cell_length_b   6.88300878
_cell_length_c   6.91533227
_cell_angle_alpha   90.00000000
_cell_angle_beta   90.00000000
_cell_angle_gamma   90.00000000
_symmetry_Int_Tables_number   29
_chemical_formula_structural   CeSe2
_chemical_formula_sum   'Ce4 Se8'
_cell_volume   340.88595774
_cell_formula_units_Z   4
loop_
 _symmetry_equiv_pos_site_id
 _symmetry_equiv_pos_as_xyz
  1  'x, y, z'
  2  '-x, -y, z+1/2'
  3  '-x+1/2, y, z+1/2'
  4  'x+1/2, -y, z'
loop_
 _atom_site_type_symbol
 _atom_site_label
 _atom_site_symmetry_multiplicity
 _atom_site_fract_x
 _atom_site_fract_y
 _atom_site_fract_z
 _atom_site_occupancy
  Ce  Ce0  4  0.21020634235181465  0.6148906120592721  0.7256548837217619  1
  Se  Se1  4  0.2614662803093362  0.5980504511624843  0.13117034025015475  1
  Se  Se2  4  0.13029909910554285  0.5483091800397146  0.32833625843145003  1
