# generated using pymatgen
data_SN
_symmetry_space_group_name_H-M   P-1
_cell_length_a   3.79623052
_cell_length_b   4.43500614
_cell_length_c   4.61982032
_cell_angle_alpha   99.99675135
_cell_angle_beta   93.16644353
_cell_angle_gamma   91.08085488
_symmetry_Int_Tables_number   2
_chemical_formula_structural   SN
_chemical_formula_sum   'S2 N2'
_cell_volume   76.45083952
_cell_formula_units_Z   2
loop_
 _symmetry_equiv_pos_site_id
 _symmetry_equiv_pos_as_xyz
  1  'x, y, z'
  2  '-x, -y, -z'
loop_
 _atom_site_type_symbol
 _atom_site_label
 _atom_site_symmetry_multiplicity
 _atom_site_fract_x
 _atom_site_fract_y
 _atom_site_fract_z
 _atom_site_occupancy
  S  S0  2  0.7204885912232751  0.9898054593685544  0.6974934755261823  1
  N  N1  2  0.3793349492153495  0.7412798846530846  0.8851632407404924  1
