# generated using pymatgen
data_WN2
_symmetry_space_group_name_H-M   Pna2_1
_cell_length_a   5.88918000
_cell_length_b   8.13412706
_cell_length_c   6.00730505
_cell_angle_alpha   90.00000000
_cell_angle_beta   90.00000000
_cell_angle_gamma   90.00000000
_symmetry_Int_Tables_number   33
_chemical_formula_structural   WN2
_chemical_formula_sum   'W4 N8'
_cell_volume   287.76996668
_cell_formula_units_Z   4
loop_
 _symmetry_equiv_pos_site_id
 _symmetry_equiv_pos_as_xyz
  1  'x, y, z'
  2  '-x, -y, z+1/2'
  3  '-x+1/2, y+1/2, z+1/2'
  4  'x+1/2, -y+1/2, z'
loop_
 _atom_site_type_symbol
 _atom_site_label
 _atom_site_symmetry_multiplicity
 _atom_site_fract_x
 _atom_site_fract_y
 _atom_site_fract_z
 _atom_site_occupancy
  W  W0  4  0.9485490291445868  0.12425298239308491  0.3958758947775301  1
  N  N1  4  0.9897690409284259  0.028120042569639837  0.11777586446856644  1
  N  N2  4  0.8478859572342609  0.7022580326949377  0.9265378669820945  1
