# generated using pymatgen
data_WN2
_symmetry_space_group_name_H-M   Pna2_1
_cell_length_a   5.88918000
_cell_length_b   8.13412706
_cell_length_c   6.00730505
_cell_angle_alpha   90.00000000
_cell_angle_beta   90.00000000
_cell_angle_gamma   90.00000000
_symmetry_Int_Tables_number   33
_chemical_formula_structural   WN2
_chemical_formula_sum   'W4 N8'
_cell_volume   287.76996668
_cell_formula_units_Z   4
loop_
 _symmetry_equiv_pos_site_id
 _symmetry_equiv_pos_as_xyz
  1  'x, y, z'
  2  '-x, -y, z+1/2'
  3  '-x+1/2, y+1/2, z+1/2'
  4  'x+1/2, -y+1/2, z'
loop_
 _atom_site_type_symbol
 _atom_site_label
 _atom_site_symmetry_multiplicity
 _atom_site_fract_x
 _atom_site_fract_y
 _atom_site_fract_z
 _atom_site_occupancy
  W  W0  4  0.3668765369028255  0.7933898506431663  0.30984031192560113  1
  N  N1  4  0.27232782889080387  0.05017976946860092  0.5805635720159366  1
  N  N2  4  0.7294218350653147  0.7142514360984357  0.528889627726496  1
