# generated using pymatgen
data_CdP2
_symmetry_space_group_name_H-M   Pna2_1
_cell_length_a   10.01461022
_cell_length_b   5.48237859
_cell_length_c   5.24770641
_cell_angle_alpha   90.00000000
_cell_angle_beta   90.00000000
_cell_angle_gamma   90.00000000
_symmetry_Int_Tables_number   33
_chemical_formula_structural   CdP2
_chemical_formula_sum   'Cd4 P8'
_cell_volume   288.11946745
_cell_formula_units_Z   4
loop_
 _symmetry_equiv_pos_site_id
 _symmetry_equiv_pos_as_xyz
  1  'x, y, z'
  2  '-x, -y, z+1/2'
  3  '-x+1/2, y+1/2, z+1/2'
  4  'x+1/2, -y+1/2, z'
loop_
 _atom_site_type_symbol
 _atom_site_label
 _atom_site_symmetry_multiplicity
 _atom_site_fract_x
 _atom_site_fract_y
 _atom_site_fract_z
 _atom_site_occupancy
  Cd  Cd0  4  0.1781729132947989  0.4064834014001455  0.8326081689529283  1
  P  P1  4  0.7061599943029817  0.776508887254659  0.7755147281432854  1
  P  P2  4  0.32162797898549567  0.9637080526547537  0.9449771869396626  1
