# generated using pymatgen
data_Ag2S
_symmetry_space_group_name_H-M   P2_1
_cell_length_a   4.25678185
_cell_length_b   6.50614355
_cell_length_c   4.72456139
_cell_angle_alpha   90.00000000
_cell_angle_beta   103.05957718
_cell_angle_gamma   90.00000000
_symmetry_Int_Tables_number   4
_chemical_formula_structural   Ag2S
_chemical_formula_sum   'Ag4 S2'
_cell_volume   127.46353546
_cell_formula_units_Z   2
loop_
 _symmetry_equiv_pos_site_id
 _symmetry_equiv_pos_as_xyz
  1  'x, y, z'
  2  '-x, y+1/2, -z'
loop_
 _atom_site_type_symbol
 _atom_site_label
 _atom_site_symmetry_multiplicity
 _atom_site_fract_x
 _atom_site_fract_y
 _atom_site_fract_z
 _atom_site_occupancy
  Ag  Ag0  2  0.10064126670634048  0.826324937694479  0.8933914550246428  1
  Ag  Ag1  2  0.4340417205704159  0.5060762347847815  0.7911379780655955  1
  S  S2  2  0.050242409759710394  0.16626076553392446  0.207954273035319  1
