# generated using pymatgen
data_Fe3O4
_symmetry_space_group_name_H-M   Pbcm
_cell_length_a   2.95863937
_cell_length_b   9.80150186
_cell_length_c   10.00172197
_cell_angle_alpha   90.0869069747273310800
_cell_angle_beta   90.0869069747273310800
_cell_angle_gamma   90.0869069747273310800
_symmetry_Int_Tables_number   57
_chemical_formula_structural   Fe3O4
_chemical_formula_sum   'Fe12 O16'
_cell_volume   290.04102848
_cell_formula_units_Z   4
loop_
 _symmetry_equiv_pos_site_id
 _symmetry_equiv_pos_as_xyz
  1  'x, y, z'
  2  '-x, -y, -z'
  3  '-x, -y, z+1/2'
  4  'x, y, -z+1/2'
  5  'x, -y+1/2, -z'
  6  '-x, y+1/2, z'
  7  '-x, y+1/2, -z+1/2'
  8  'x, -y+1/2, z+1/2'
loop_
 _atom_site_type_symbol
 _atom_site_label
 _atom_site_symmetry_multiplicity
 _atom_site_fract_x
 _atom_site_fract_y
 _atom_site_fract_z
 _atom_site_occupancy
  Fe  Fe0  8  0.4999311268288569  0.7481586783026861  0.7481353728851898  1
  Fe  Fe1  4  0.5000846684029501  0.7500398606085694  0.8127189166974376  1
  O  O2  8  0.4999500811070252  0.7482943384822809  0.24819089461510746  1
  O  O3  4  0.5000642836132219  0.750064119700439  0.05864614597834027  1
  O  O4  4  0.5000786483334689  0.8127189166974376  0.08690697472733108  1
