# generated using pymatgen
data_Fe3O4
_symmetry_space_group_name_H-M   Pbcm
_cell_length_a   2.95863937
_cell_length_b   9.80150186
_cell_length_c   10.00172197
_cell_angle_alpha   90.85518013567806100
_cell_angle_beta   90.85518013567806100
_cell_angle_gamma   90.85518013567806100
_symmetry_Int_Tables_number   57
_chemical_formula_structural   Fe3O4
_chemical_formula_sum   'Fe12 O16'
_cell_volume   290.04102848
_cell_formula_units_Z   4
loop_
 _symmetry_equiv_pos_site_id
 _symmetry_equiv_pos_as_xyz
  1  'x, y, z'
  2  '-x, -y, -z'
  3  '-x, -y, z+1/2'
  4  'x, y, -z+1/2'
  5  'x, -y+1/2, -z'
  6  '-x, y+1/2, z'
  7  '-x, y+1/2, -z+1/2'
  8  'x, -y+1/2, z+1/2'
loop_
 _atom_site_type_symbol
 _atom_site_label
 _atom_site_symmetry_multiplicity
 _atom_site_fract_x
 _atom_site_fract_y
 _atom_site_fract_z
 _atom_site_occupancy
  Fe  Fe0  8  0.24260182634602942  0.6762820289303082  0.4174365650079587  1
  Fe  Fe1  4  0.013730467184213828  0.6356497189789843  0.732218964828191  1
  O  O2  8  0.9490780800031471  0.2738809152770588  0.5863227001620949  1
  O  O3  4  0.7560128424175288  0.2306242126598485  0.9921832676043074  1
  O  O4  4  0.5936246272101776  0.732218964828191  0.855180135678061  1
