# generated using pymatgen
data_NiP
_symmetry_space_group_name_H-M   Pbca
_cell_length_a   4.87648390
_cell_length_b   6.91629896
_cell_length_c   6.02612186
_cell_angle_alpha   90.00000000
_cell_angle_beta   90.00000000
_cell_angle_gamma   90.00000000
_symmetry_Int_Tables_number   61
_chemical_formula_structural   NiP
_chemical_formula_sum   'Ni8 P8'
_cell_volume   203.24434089
_cell_formula_units_Z   8
loop_
 _symmetry_equiv_pos_site_id
 _symmetry_equiv_pos_as_xyz
  1  'x, y, z'
  2  '-x, -y, -z'
  3  '-x+1/2, -y, z+1/2'
  4  'x+1/2, y, -z+1/2'
  5  'x+1/2, -y+1/2, -z'
  6  '-x+1/2, y+1/2, z'
  7  '-x, y+1/2, -z+1/2'
  8  'x, -y+1/2, z+1/2'
loop_
 _atom_site_type_symbol
 _atom_site_label
 _atom_site_symmetry_multiplicity
 _atom_site_fract_x
 _atom_site_fract_y
 _atom_site_fract_z
 _atom_site_occupancy
  Ni  Ni0  8  0.446892060871231  0.8545807018942999  0.7497619084992304  1
  P  P1  8  0.7597229709985801  0.5034788141170164  0.055695646398921994  1
