# generated using pymatgen
data_V2O5
_symmetry_space_group_name_H-M   Pnma
_cell_length_a   9.68871788
_cell_length_b   11.57819198
_cell_length_c   3.61667696
_cell_angle_alpha   90.00000000
_cell_angle_beta   90.00000000
_cell_angle_gamma   90.00000000
_symmetry_Int_Tables_number   62
_chemical_formula_structural   V2O5
_chemical_formula_sum   'V8 O20'
_cell_volume   405.71099364
_cell_formula_units_Z   4
loop_
 _symmetry_equiv_pos_site_id
 _symmetry_equiv_pos_as_xyz
  1  'x, y, z'
  2  '-x, -y, -z'
  3  '-x+1/2, -y, z+1/2'
  4  'x+1/2, y, -z+1/2'
  5  'x+1/2, -y+1/2, -z+1/2'
  6  '-x+1/2, y+1/2, z+1/2'
  7  '-x, y+1/2, -z'
  8  'x, -y+1/2, z'
loop_
 _atom_site_type_symbol
 _atom_site_label
 _atom_site_symmetry_multiplicity
 _atom_site_fract_x
 _atom_site_fract_y
 _atom_site_fract_z
 _atom_site_occupancy
  V  V0  8  0.2500114589936411  0.7500918358619115  0.25012971461592404  1
  O  O1  8  0.7500191181909512  0.2499209195328307  0.7497646063425902  1
  O  O2  8  0.7498925775225507  0.2499387413226808  0.7499837726344927  1
  O  O3  4  0.7500012964011011  0.14749575540398094  0.25001163780758606  1
