# generated using pymatgen
data_Cs2O2
_symmetry_space_group_name_H-M   Immm
_cell_length_a   4.39469302
_cell_length_b   6.57835817
_cell_length_c   7.64204952
_cell_angle_alpha   90.587337273119042500
_cell_angle_beta   90.587337273119042500
_cell_angle_gamma   90.587337273119042500
_symmetry_Int_Tables_number   71
_chemical_formula_structural   Cs2O2
_chemical_formula_sum   'Cs4 O4'
_cell_volume   220.93061768
_cell_formula_units_Z   2
loop_
 _symmetry_equiv_pos_site_id
 _symmetry_equiv_pos_as_xyz
  1  'x, y, z'
  2  '-x, -y, -z'
  3  '-x, -y, z'
  4  'x, y, -z'
  5  'x, -y, -z'
  6  '-x, y, z'
  7  '-x, y, -z'
  8  'x, -y, z'
  9  'x+1/2, y+1/2, z+1/2'
  10  '-x+1/2, -y+1/2, -z+1/2'
  11  '-x+1/2, -y+1/2, z+1/2'
  12  'x+1/2, y+1/2, -z+1/2'
  13  'x+1/2, -y+1/2, -z+1/2'
  14  '-x+1/2, y+1/2, z+1/2'
  15  '-x+1/2, y+1/2, -z+1/2'
  16  'x+1/2, -y+1/2, z+1/2'
loop_
 _atom_site_type_symbol
 _atom_site_label
 _atom_site_symmetry_multiplicity
 _atom_site_fract_x
 _atom_site_fract_y
 _atom_site_fract_z
 _atom_site_occupancy
  Cs  Cs0  4  0.5873372731190425  0.5873372731190425  0.7626259744877008  1
  O  O1  4  0.5873372731190425  0.6567512167753018  0.5873372731190425  1
