# generated using pymatgen
data_InS
_symmetry_space_group_name_H-M   P2_1/c
_cell_length_a   4.08621816
_cell_length_b   11.19883426
_cell_length_c   5.68130343
_cell_angle_alpha   90.00000000
_cell_angle_beta   133.60602792
_cell_angle_gamma   90.00000000
_symmetry_Int_Tables_number   14
_chemical_formula_structural   InS
_chemical_formula_sum   'In4 S4'
_cell_volume   188.25238286
_cell_formula_units_Z   4
loop_
 _symmetry_equiv_pos_site_id
 _symmetry_equiv_pos_as_xyz
  1  'x, y, z'
  2  '-x, -y, -z'
  3  '-x, y+1/2, -z+1/2'
  4  'x, -y+1/2, z+1/2'
loop_
 _atom_site_type_symbol
 _atom_site_label
 _atom_site_symmetry_multiplicity
 _atom_site_fract_x
 _atom_site_fract_y
 _atom_site_fract_z
 _atom_site_occupancy
  In  In0  4  0.6575610938002834  0.19525613968174693  0.3812802457580986  1
  S  S1  4  0.4801693900889802  0.7686353852654081  0.3874767039099629  1
