# generated using pymatgen
data_CuO
_symmetry_space_group_name_H-M   C2/c
_cell_length_a   4.31715610
_cell_length_b   3.96140897
_cell_length_c   5.14848768
_cell_angle_alpha   90.4595972406784337700
_cell_angle_beta   94.14988711
_cell_angle_gamma   90.4595972406784337700
_symmetry_Int_Tables_number   15
_chemical_formula_structural   CuO
_chemical_formula_sum   'Cu4 O4'
_cell_volume   87.81869159
_cell_formula_units_Z   4
loop_
 _symmetry_equiv_pos_site_id
 _symmetry_equiv_pos_as_xyz
  1  'x, y, z'
  2  '-x, -y, -z'
  3  '-x, y, -z+1/2'
  4  'x, -y, z+1/2'
  5  'x+1/2, y+1/2, z'
  6  '-x+1/2, -y+1/2, -z'
  7  '-x+1/2, y+1/2, -z+1/2'
  8  'x+1/2, -y+1/2, z+1/2'
loop_
 _atom_site_type_symbol
 _atom_site_label
 _atom_site_symmetry_multiplicity
 _atom_site_fract_x
 _atom_site_fract_y
 _atom_site_fract_z
 _atom_site_occupancy
  Cu  Cu0  4  0.18000806020407312  0.18000806020407312  0.45959724067843377  1
  O  O1  4  0.45959724067843377  0.28569246016399474  0.18000806020407312  1
