# generated using pymatgen
data_Bi2PdO4
_symmetry_space_group_name_H-M   P4/ncc
_cell_length_a   8.61246564
_cell_length_b   8.61246564
_cell_length_c   6.16996686
_cell_angle_alpha   90.1857531181426714800
_cell_angle_beta   90.1857531181426714800
_cell_angle_gamma   90.1857531181426714800
_symmetry_Int_Tables_number   130
_chemical_formula_structural   Bi2PdO4
_chemical_formula_sum   'Bi8 Pd4 O16'
_cell_volume   457.65460420
_cell_formula_units_Z   4
loop_
 _symmetry_equiv_pos_site_id
 _symmetry_equiv_pos_as_xyz
  1  'x, y, z'
  2  '-y+1/2, x+1/2, z'
  3  '-x, -y, z'
  4  'y+1/2, -x+1/2, z'
  5  'x+1/2, -y+1/2, -z+1/2'
  6  '-y, -x, -z+1/2'
  7  '-x+1/2, y+1/2, -z+1/2'
  8  'y, x, -z+1/2'
  9  '-x+1/2, -y+1/2, -z'
  10  'y, -x, -z'
  11  'x+1/2, y+1/2, -z'
  12  '-y, x, -z'
  13  '-x, y, z+1/2'
  14  'y+1/2, x+1/2, z+1/2'
  15  'x, -y, z+1/2'
  16  '-y+1/2, -x+1/2, z+1/2'
loop_
 _atom_site_type_symbol
 _atom_site_label
 _atom_site_symmetry_multiplicity
 _atom_site_fract_x
 _atom_site_fract_y
 _atom_site_fract_z
 _atom_site_occupancy
  Bi  Bi0  8  0.7499990314244647  0.7499990314244647  0.7474980799852657  1
  Pd  Pd1  4  0.18575311814267148  0.6197517883629673  0.2499953657385925  1
  O  O2  16  0.2510405928516741  0.24895931774135338  0.7500002831220796  1
