# generated using pymatgen
data_Cu(BiO2)2
_symmetry_space_group_name_H-M   I4cm
_cell_length_a   8.88926692
_cell_length_b   8.88926692
_cell_length_c   5.62728465
_cell_angle_alpha   90.719070982275124200
_cell_angle_beta   90.719070982275124200
_cell_angle_gamma   90.719070982275124200
_symmetry_Int_Tables_number   108
_chemical_formula_structural   Cu(BiO2)2
_chemical_formula_sum   'Cu4 Bi8 O16'
_cell_volume   444.66277887
_cell_formula_units_Z   4
loop_
 _symmetry_equiv_pos_site_id
 _symmetry_equiv_pos_as_xyz
  1  'x, y, z'
  2  '-y, x, z'
  3  '-x, -y, z'
  4  'y, -x, z'
  5  '-x, y, z+1/2'
  6  'y, x, z+1/2'
  7  'x, -y, z+1/2'
  8  '-y, -x, z+1/2'
  9  'x+1/2, y+1/2, z+1/2'
  10  '-y+1/2, x+1/2, z+1/2'
  11  '-x+1/2, -y+1/2, z+1/2'
  12  'y+1/2, -x+1/2, z+1/2'
  13  '-x+1/2, y+1/2, z'
  14  'y+1/2, x+1/2, z'
  15  'x+1/2, -y+1/2, z'
  16  '-y+1/2, -x+1/2, z'
loop_
 _atom_site_type_symbol
 _atom_site_label
 _atom_site_symmetry_multiplicity
 _atom_site_fract_x
 _atom_site_fract_y
 _atom_site_fract_z
 _atom_site_occupancy
  Cu  Cu0  4  0.7190709822751242  0.7190709822751242  0.9350197468342536  1
  Bi  Bi1  8  0.9624451698062427  0.32399810025612497  0.8721986573942974  1
  O  O2  16  0.8876297554563728  0.02710505352312664  0.5400376081433188  1
