# generated using pymatgen
data_Bi3O4F
_symmetry_space_group_name_H-M   P2/c
_cell_length_a   9.08894947
_cell_length_b   5.85408164
_cell_length_c   5.76543756
_cell_angle_alpha   90.2478782086299782300
_cell_angle_beta   99.06840177
_cell_angle_gamma   90.2478782086299782300
_symmetry_Int_Tables_number   13
_chemical_formula_structural   Bi3O4F
_chemical_formula_sum   'Bi6 O8 F2'
_cell_volume   302.92996052
_cell_formula_units_Z   2
loop_
 _symmetry_equiv_pos_site_id
 _symmetry_equiv_pos_as_xyz
  1  'x, y, z'
  2  '-x, -y, -z'
  3  '-x, y, -z+1/2'
  4  'x, -y, z+1/2'
loop_
 _atom_site_type_symbol
 _atom_site_label
 _atom_site_symmetry_multiplicity
 _atom_site_fract_x
 _atom_site_fract_y
 _atom_site_fract_z
 _atom_site_occupancy
  Bi  Bi0  4  0.8092444425370957  0.28762038276317015  0.8751653954485294  1
  Bi  Bi1  2  0.44127449043241085  0.8077191595863795  0.3413170779536413  1
  O  O2  4  0.6967164097259289  0.48245784535752806  0.5631024577082668  1
  O  O3  4  0.6398360514543087  0.07589501594871377  0.9521430106248265  1
  F  F4  2  0.24787820862997823  0.47940870996765556  0.3413170779536413  1
