# generated using pymatgen
data_Bi3O4F
_symmetry_space_group_name_H-M   P2/c
_cell_length_a   9.08894947
_cell_length_b   5.85408164
_cell_length_c   5.76543756
_cell_angle_alpha   90.703036767425344400
_cell_angle_beta   99.06840177
_cell_angle_gamma   90.703036767425344400
_symmetry_Int_Tables_number   13
_chemical_formula_structural   Bi3O4F
_chemical_formula_sum   'Bi6 O8 F2'
_cell_volume   302.92996052
_cell_formula_units_Z   2
loop_
 _symmetry_equiv_pos_site_id
 _symmetry_equiv_pos_as_xyz
  1  'x, y, z'
  2  '-x, -y, -z'
  3  '-x, y, -z+1/2'
  4  'x, -y, z+1/2'
loop_
 _atom_site_type_symbol
 _atom_site_label
 _atom_site_symmetry_multiplicity
 _atom_site_fract_x
 _atom_site_fract_y
 _atom_site_fract_z
 _atom_site_occupancy
  Bi  Bi0  4  0.6641311445314374  0.41437395896756407  0.26174201141250203  1
  Bi  Bi1  2  0.26854701450747337  0.6201460135070094  0.9986822008301139  1
  O  O2  4  0.4419017101467675  0.5305571276281552  0.29697723966701267  1
  O  O3  4  0.6799530792208361  0.7285733657224992  0.07179886530630977  1
  F  F4  2  0.7030367674253444  0.2709612411833549  0.9986822008301139  1
