# generated using pymatgen
data_K5As2Au
_symmetry_space_group_name_H-M   P6_3/mmc
_cell_length_a   5.80347060
_cell_length_b   5.80347060
_cell_length_c   19.51748848
_cell_angle_alpha   90.111255313711430100
_cell_angle_beta   90.111255313711430100
_cell_angle_gamma   120.111255313711430100
_symmetry_Int_Tables_number   194
_chemical_formula_structural   K5As2Au
_chemical_formula_sum   'K10 As4 Au2'
_cell_volume   569.28552428
_cell_formula_units_Z   2
loop_
 _symmetry_equiv_pos_site_id
 _symmetry_equiv_pos_as_xyz
  1  'x, y, z'
  2  '-x, -y, -z'
  3  'x-y, x, z+1/2'
  4  '-x+y, -x, -z+1/2'
  5  '-y, x-y, z'
  6  'y, -x+y, -z'
  7  '-x, -y, z+1/2'
  8  'x, y, -z+1/2'
  9  '-x+y, -x, z'
  10  'x-y, x, -z'
  11  'y, -x+y, z+1/2'
  12  '-y, x-y, -z+1/2'
  13  '-y, -x, -z+1/2'
  14  'y, x, z+1/2'
  15  '-x, -x+y, -z'
  16  'x, x-y, z'
  17  '-x+y, y, -z+1/2'
  18  'x-y, -y, z+1/2'
  19  'y, x, -z'
  20  '-y, -x, z'
  21  'x, x-y, -z+1/2'
  22  '-x, -x+y, z+1/2'
  23  'x-y, -y, -z'
  24  '-x+y, y, z'
loop_
 _atom_site_type_symbol
 _atom_site_label
 _atom_site_symmetry_multiplicity
 _atom_site_fract_x
 _atom_site_fract_y
 _atom_site_fract_z
 _atom_site_occupancy
  K  K0  4  0.1112553137114301  0.1112553137114301  0.8940421309876199  1
  K  K1  4  0.526711654869721  0.638389984495496  0.4725512943731654  1
  K  K2  2  0.526711654869721  0.638389984495496  0.295055985319701  1
  As  As3  4  0.526711654869721  0.638389984495496  0.9784408173781628  1
  Au  Au4  2  0.526711654869721  0.638389984495496  0.3791742039925491  1
