# generated using pymatgen
data_BaV4O9
_symmetry_space_group_name_H-M   P2/c
_cell_length_a   7.91066014
_cell_length_b   5.09013396
_cell_length_c   9.58032365
_cell_angle_alpha   90.1834527959497449200
_cell_angle_beta   111.60190894
_cell_angle_gamma   90.1834527959497449200
_symmetry_Int_Tables_number   13
_chemical_formula_structural   BaV4O9
_chemical_formula_sum   'Ba2 V8 O18'
_cell_volume   358.66991427
_cell_formula_units_Z   2
loop_
 _symmetry_equiv_pos_site_id
 _symmetry_equiv_pos_as_xyz
  1  'x, y, z'
  2  '-x, -y, -z'
  3  '-x, y, -z+1/2'
  4  'x, -y, z+1/2'
loop_
 _atom_site_type_symbol
 _atom_site_label
 _atom_site_symmetry_multiplicity
 _atom_site_fract_x
 _atom_site_fract_y
 _atom_site_fract_z
 _atom_site_occupancy
  Ba  Ba0  2  0.18345279594974492  0.6347391983711241  0.08597755944595095  1
  V  V1  4  0.5002287328379591  0.5013830364574812  0.25200070452694323  1
  V  V2  4  0.500758260533706  0.4936104711061997  0.2425780440913465  1
  O  O3  4  0.5003518164367566  0.5003295242982819  0.7510378212355269  1
  O  O4  4  0.5039395990335702  0.5018474162726054  0.254716530723365  1
  O  O5  4  0.4995786845432928  0.5012405217433287  0.7480892984920322  1
  O  O6  4  0.5021783412801231  0.4977025686325174  0.7510796040940049  1
  O  O7  2  0.5908265465990631  0.5004833042909684  0.08597755944595095  1
