# generated using pymatgen
data_Ge2S3I2
_symmetry_space_group_name_H-M   P-3
_cell_length_a   11.22519631
_cell_length_b   11.22519631
_cell_length_c   9.96135067
_cell_angle_alpha   90.00000000
_cell_angle_beta   90.00000000
_cell_angle_gamma   120.00000000
_symmetry_Int_Tables_number   147
_chemical_formula_structural   Ge2S3I2
_chemical_formula_sum   'Ge8 S12 I8'
_cell_volume   1087.01803668
_cell_formula_units_Z   4
loop_
 _symmetry_equiv_pos_site_id
 _symmetry_equiv_pos_as_xyz
  1  'x, y, z'
  2  '-x, -y, -z'
  3  '-y, x-y, z'
  4  'y, -x+y, -z'
  5  '-x+y, -x, z'
  6  'x-y, x, -z'
loop_
 _atom_site_type_symbol
 _atom_site_label
 _atom_site_symmetry_multiplicity
 _atom_site_fract_x
 _atom_site_fract_y
 _atom_site_fract_z
 _atom_site_occupancy
  Ge  Ge0  6  0.3367977343081078  0.667931834932079  0.5011202991676509  1
  Ge  Ge1  2  0.6009853840461602  0.24363990090131168  0.5034079851751319  1
  S  S2  6  0.6665612856484225  0.33298238116397744  0.4994784295248049  1
  S  S3  6  0.3291009860694996  0.6651951471087424  0.49884411685729724  1
  I  I4  6  0.6667896310561675  0.33333279689149836  0.5005065501038164  1
  I  I5  2  0.6009853840461602  0.24363990090131168  0.49553754899129565  1
