# generated using pymatgen
data_K5CuAs2
_symmetry_space_group_name_H-M   P6_3/mmc
_cell_length_a   5.78705769
_cell_length_b   5.78705769
_cell_length_c   18.95008047
_cell_angle_alpha   90.3265212968898592600
_cell_angle_beta   90.3265212968898592600
_cell_angle_gamma   120.3265212968898592600
_symmetry_Int_Tables_number   194
_chemical_formula_structural   K5CuAs2
_chemical_formula_sum   'K10 Cu2 As4'
_cell_volume   549.61340228
_cell_formula_units_Z   2
loop_
 _symmetry_equiv_pos_site_id
 _symmetry_equiv_pos_as_xyz
  1  'x, y, z'
  2  '-x, -y, -z'
  3  'x-y, x, z+1/2'
  4  '-x+y, -x, -z+1/2'
  5  '-y, x-y, z'
  6  'y, -x+y, -z'
  7  '-x, -y, z+1/2'
  8  'x, y, -z+1/2'
  9  '-x+y, -x, z'
  10  'x-y, x, -z'
  11  'y, -x+y, z+1/2'
  12  '-y, x-y, -z+1/2'
  13  '-y, -x, -z+1/2'
  14  'y, x, z+1/2'
  15  '-x, -x+y, -z'
  16  'x, x-y, z'
  17  '-x+y, y, -z+1/2'
  18  'x-y, -y, z+1/2'
  19  'y, x, -z'
  20  '-y, -x, z'
  21  'x, x-y, -z+1/2'
  22  '-x, -x+y, z+1/2'
  23  'x-y, -y, -z'
  24  '-x+y, y, z'
loop_
 _atom_site_type_symbol
 _atom_site_label
 _atom_site_symmetry_multiplicity
 _atom_site_fract_x
 _atom_site_fract_y
 _atom_site_fract_z
 _atom_site_occupancy
  K  K0  4  0.32652129688985926  0.32652129688985926  0.14524299772042024  1
  K  K1  4  0.5326676090161567  0.7062772337363502  0.549250993087947  1
  K  K2  2  0.5326676090161567  0.7062772337363502  0.3077247922256465  1
  Cu  Cu3  2  0.5326676090161567  0.7062772337363502  0.6650284329073687  1
  As  As4  4  0.5326676090161567  0.7062772337363502  0.3732810242939606  1
