# generated using pymatgen
data_Rb2Pb2O3
_symmetry_space_group_name_H-M   I2_13
_cell_length_a   8.96403206
_cell_length_b   8.96403206
_cell_length_c   8.96403206
_cell_angle_alpha   90.764092563317441600
_cell_angle_beta   90.764092563317441600
_cell_angle_gamma   90.764092563317441600
_symmetry_Int_Tables_number   199
_chemical_formula_structural   Rb2Pb2O3
_chemical_formula_sum   'Rb8 Pb8 O12'
_cell_volume   720.29467375
_cell_formula_units_Z   4
loop_
 _symmetry_equiv_pos_site_id
 _symmetry_equiv_pos_as_xyz
  1  'x, y, z'
  2  '-x, -y+1/2, z'
  3  'x, -y, -z+1/2'
  4  '-x+1/2, y, -z'
  5  'z, x, y'
  6  'z, -x, -y+1/2'
  7  '-z+1/2, x, -y'
  8  '-z, -x+1/2, y'
  9  'y, z, x'
  10  '-y+1/2, z, -x'
  11  '-y, -z+1/2, x'
  12  'y, -z, -x+1/2'
  13  'x+1/2, y+1/2, z+1/2'
  14  '-x+1/2, -y, z+1/2'
  15  'x+1/2, -y+1/2, -z'
  16  '-x, y+1/2, -z+1/2'
  17  'z+1/2, x+1/2, y+1/2'
  18  'z+1/2, -x+1/2, -y'
  19  '-z, x+1/2, -y+1/2'
  20  '-z+1/2, -x, y+1/2'
  21  'y+1/2, z+1/2, x+1/2'
  22  '-y, z+1/2, -x+1/2'
  23  '-y+1/2, -z, x+1/2'
  24  'y+1/2, -z+1/2, -x'
loop_
 _atom_site_type_symbol
 _atom_site_label
 _atom_site_symmetry_multiplicity
 _atom_site_fract_x
 _atom_site_fract_y
 _atom_site_fract_z
 _atom_site_occupancy
  Rb  Rb0  8  0.49386429689326145  0.49386429689326145  0.49386429689326145  1
  Pb  Pb1  8  0.9923401061581812  0.9923401061581812  0.9923401061581812  1
  O  O2  12  0.7640925633174416  0.9382452182079457  0.7347813525740791  1
