# generated using pymatgen
data_In4SbTe3
_symmetry_space_group_name_H-M   Cm
_cell_length_a   8.83811760
_cell_length_b   12.46677344
_cell_length_c   6.21888572
_cell_angle_alpha   90.449953779022012900
_cell_angle_beta   134.72110227
_cell_angle_gamma   90.449953779022012900
_symmetry_Int_Tables_number   8
_chemical_formula_structural   In4SbTe3
_chemical_formula_sum   'In8 Sb2 Te6'
_cell_volume   486.87241905
_cell_formula_units_Z   2
loop_
 _symmetry_equiv_pos_site_id
 _symmetry_equiv_pos_as_xyz
  1  'x, y, z'
  2  '-x+460/917, -y+460/917, -z+7/998'
  3  'x-z+287/570, y, 2x-z+5/929'
  4  '-x+z+533/534, -y+460/917, -2x+z+1/611'
  5  '-x+1/611, y, -z+7/998'
  6  'x+1/2, -y+460/917, z'
  7  '-x+z+133/267, y, -2x+z+1/611'
  8  'x-z+1/285, -y+460/917, 2x-z+5/929'
  9  'x+1/2, -y+460/917, 2x-z+5/929'
  10  '-x+1/611, y, -2x+z+1/611'
  11  'x-z+1/285, -y+460/917, -z+7/998'
  12  '-x+z+133/267, y, z'
  13  '-x+460/917, -y+460/917, -2x+z+1/611'
  14  'x, y, 2x-z+5/929'
  15  '-x+z+533/534, -y+460/917, z'
  16  'x-z+287/570, y, -z+7/998'
  17  'x+1/2, y+1/2, z'
  18  '-x+1/611, -y+1/611, -z+7/998'
  19  'x-z+1/285, y+1/2, 2x-z+5/929'
  20  '-x+z+133/267, -y+1/611, -2x+z+1/611'
  21  '-x+460/917, y+1/2, -z+7/998'
  22  'x, -y+1/611, z'
  23  '-x+z+533/534, y+1/2, -2x+z+1/611'
  24  'x-z+287/570, -y+1/611, 2x-z+5/929'
  25  'x, -y+1/611, 2x-z+5/929'
  26  '-x+460/917, y+1/2, -2x+z+1/611'
  27  'x-z+287/570, -y+1/611, -z+7/998'
  28  '-x+z+533/534, y+1/2, z'
  29  '-x+1/611, -y+1/611, -2x+z+1/611'
  30  'x+1/2, y+1/2, 2x-z+5/929'
  31  '-x+z+133/267, -y+1/611, z'
  32  'x-z+1/285, y+1/2, -z+7/998'
loop_
 _atom_site_type_symbol
 _atom_site_label
 _atom_site_symmetry_multiplicity
 _atom_site_fract_x
 _atom_site_fract_y
 _atom_site_fract_z
 _atom_site_occupancy
  In  In0  4  0.8633529459294944  0.14839191326104134  0.6382904662577789  1
  In  In1  4  0.4514231166769354  0.34008989014049684  0.2715743350896537  1
  Sb  Sb2  2  0.31400620909187466  0.4499537790220129  0.40497012127381293  1
  Te  Te3  4  0.5722969659915232  0.7544211941800145  0.11600066045593728  1
  Te  Te4  2  0.5505174938946308  0.4499537790220129  0.39844783861867883  1
