# generated using pymatgen
data_SiH9C3Cl
_symmetry_space_group_name_H-M   P2_1/m
_cell_length_a   6.61272113
_cell_length_b   7.97884934
_cell_length_c   6.90394519
_cell_angle_alpha   90.00000000
_cell_angle_beta   91.09588687
_cell_angle_gamma   90.00000000
_symmetry_Int_Tables_number   11
_chemical_formula_structural   SiH9C3Cl
_chemical_formula_sum   'Si2 H18 C6 Cl2'
_cell_volume   364.19867564
_cell_formula_units_Z   2
loop_
 _symmetry_equiv_pos_site_id
 _symmetry_equiv_pos_as_xyz
  1  'x, y, z'
  2  '-x, -y, -z'
  3  '-x, y+1/2, -z'
  4  'x, -y+1/2, z'
loop_
 _atom_site_type_symbol
 _atom_site_label
 _atom_site_symmetry_multiplicity
 _atom_site_fract_x
 _atom_site_fract_y
 _atom_site_fract_z
 _atom_site_occupancy
  Si  Si0  2  0.4798693942945835  0.1869787685262423  0.5081070368353746  1
  H  H1  4  0.4992984830915024  0.25026316942353066  0.4959558544132623  1
  H  H2  4  0.49869844309678335  0.24188072931055601  0.4991511404008353  1
  H  H3  4  0.49951031801166046  0.24931360777101563  0.49169555256936265  1
  H  H4  4  0.49825903762930857  0.2512295395868742  0.4990871250085309  1
  H  H5  2  0.49212506366521497  0.1869787685262423  0.5050994458853868  1
  C  C6  4  0.5045903029793681  0.748995587169861  0.4966998396336937  1
  C  C7  2  0.51298496204525  0.1869787685262423  0.4961777625189878  1
  Cl  Cl8  2  0.4942615922845359  0.560798440027144  0.507107228464319  1
