# generated using pymatgen
data_LiVSiO4
_symmetry_space_group_name_H-M   P2_1/c
_cell_length_a   5.18754855
_cell_length_b   5.89008226
_cell_length_c   10.38670346
_cell_angle_alpha   90.00000000
_cell_angle_beta   113.83513711
_cell_angle_gamma   90.00000000
_symmetry_Int_Tables_number   14
_chemical_formula_structural   LiVSiO4
_chemical_formula_sum   'Li4 V4 Si4 O16'
_cell_volume   290.29907543
_cell_formula_units_Z   4
loop_
 _symmetry_equiv_pos_site_id
 _symmetry_equiv_pos_as_xyz
  1  'x, y, z'
  2  '-x, -y, -z'
  3  '-x, y+1/2, -z+1/2'
  4  'x, -y+1/2, z+1/2'
loop_
 _atom_site_type_symbol
 _atom_site_label
 _atom_site_symmetry_multiplicity
 _atom_site_fract_x
 _atom_site_fract_y
 _atom_site_fract_z
 _atom_site_occupancy
  Li  Li0  4  0.37377872310750027  0.6402297997611641  0.043605032182039746  1
  V  V1  4  0.5919394845926454  0.6410491252570824  0.6818631697811586  1
  Si  Si2  4  0.011419714177829872  0.19357718191010845  0.6509426028098227  1
  O  O3  4  0.3326253493204921  0.8336110611922182  0.01896256321445484  1
  O  O4  4  0.363442204203737  0.4249410882557087  0.39882894747429776  1
  O  O5  4  0.17888052337649604  0.13853783241139844  0.24069882873885803  1
  O  O6  4  0.586067115430064  0.1490027397276604  0.6284477489261477  1
