# generated using pymatgen
data_SiH9C3Cl
_symmetry_space_group_name_H-M   P2_1/m
_cell_length_a   6.61272113
_cell_length_b   7.97884934
_cell_length_c   6.90394519
_cell_angle_alpha   90.00000000
_cell_angle_beta   91.09588687
_cell_angle_gamma   90.00000000
_symmetry_Int_Tables_number   11
_chemical_formula_structural   SiH9C3Cl
_chemical_formula_sum   'Si2 H18 C6 Cl2'
_cell_volume   364.19867564
_cell_formula_units_Z   2
loop_
 _symmetry_equiv_pos_site_id
 _symmetry_equiv_pos_as_xyz
  1  'x, y, z'
  2  '-x, -y, -z'
  3  '-x, y+1/2, -z'
  4  'x, -y+1/2, z'
loop_
 _atom_site_type_symbol
 _atom_site_label
 _atom_site_symmetry_multiplicity
 _atom_site_fract_x
 _atom_site_fract_y
 _atom_site_fract_z
 _atom_site_occupancy
  Si  Si0  2  0.4091341739376887  0.2040887596660113  0.8865846327891727  1
  H  H1  4  0.9037384333454629  0.8988312422532584  0.4683256428435828  1
  H  H2  4  0.5082723205251884  0.7623437501396984  0.08855462602106488  1
  H  H3  4  0.7697867017857255  0.6375971220491601  0.8011808276880281  1
  H  H4  4  0.003295719820005883  0.9339684208612693  0.1458471504358739  1
  H  H5  2  0.04790300416368271  0.2040887596660113  0.3889825575937365  1
  C  C6  4  0.3036803784179913  0.5147769757972345  0.9788737284465866  1
  C  C7  2  0.31108852094939476  0.2040887596660113  0.608199036610069  1
  Cl  Cl8  2  0.6643459596840119  0.7163079807941902  0.47796144950160085  1
