# generated using pymatgen
data_La2SnS5
_symmetry_space_group_name_H-M   Pbam
_cell_length_a   7.94617599
_cell_length_b   11.36764558
_cell_length_c   4.04407312
_cell_angle_alpha   90.372241161599228500
_cell_angle_beta   90.372241161599228500
_cell_angle_gamma   90.372241161599228500
_symmetry_Int_Tables_number   55
_chemical_formula_structural   La2SnS5
_chemical_formula_sum   'La4 Sn2 S10'
_cell_volume   365.29834411
_cell_formula_units_Z   2
loop_
 _symmetry_equiv_pos_site_id
 _symmetry_equiv_pos_as_xyz
  1  'x, y, z'
  2  '-x, -y, -z'
  3  '-x, -y, z'
  4  'x, y, -z'
  5  'x+1/2, -y+1/2, -z'
  6  '-x+1/2, y+1/2, z'
  7  '-x+1/2, y+1/2, -z'
  8  'x+1/2, -y+1/2, z'
loop_
 _atom_site_type_symbol
 _atom_site_label
 _atom_site_symmetry_multiplicity
 _atom_site_fract_x
 _atom_site_fract_y
 _atom_site_fract_z
 _atom_site_occupancy
  La  La0  4  0.07408202136051782  0.668691019337834  0.36140712269587055  1
  Sn  Sn1  2  0.3722411615992285  0.3722411615992285  0.3722411615992285  1
  S  S2  4  0.14418799544501276  0.20326198358905218  0.3722411615992285  1
  S  S3  4  0.1898819917370076  0.9307410079682474  0.36140712269587055  1
  S  S4  2  0.3722411615992285  0.36140712269587055  0.3722411615992285  1
