# generated using pymatgen
data_LiVF6
_symmetry_space_group_name_H-M   P4_2nm
_cell_length_a   4.84811708
_cell_length_b   4.84811708
_cell_length_c   8.84417165
_cell_angle_alpha   90.501351863226405600
_cell_angle_beta   90.501351863226405600
_cell_angle_gamma   90.501351863226405600
_symmetry_Int_Tables_number   102
_chemical_formula_structural   LiVF6
_chemical_formula_sum   'Li2 V2 F12'
_cell_volume   207.87552618
_cell_formula_units_Z   2
loop_
 _symmetry_equiv_pos_site_id
 _symmetry_equiv_pos_as_xyz
  1  'x, y, z'
  2  '-y+1/2, x+1/2, z+1/2'
  3  '-x, -y, z'
  4  'y+1/2, -x+1/2, z+1/2'
  5  '-x+1/2, y+1/2, z+1/2'
  6  'y, x, z'
  7  'x+1/2, -y+1/2, z+1/2'
  8  '-y, -x, z'
loop_
 _atom_site_type_symbol
 _atom_site_label
 _atom_site_symmetry_multiplicity
 _atom_site_fract_x
 _atom_site_fract_y
 _atom_site_fract_z
 _atom_site_occupancy
  Li  Li0  2  0.5013518632264056  0.5013518632264056  0.04786157893309468  1
  V  V1  2  0.5013518632264056  0.5013518632264056  0.6932121928460713  1
  F  F2  4  0.08621311701614362  0.88574086938744  0.8475301770883904  1
  F  F3  4  0.9413472379056953  0.08057511333078822  0.553540620418824  1
  F  F4  4  0.028506757527992577  0.5428533877642981  0.18894447022345484  1
