# generated using pymatgen
data_Be2BO5
_symmetry_space_group_name_H-M   C2
_cell_length_a   7.80114479
_cell_length_b   4.43044299
_cell_length_c   4.93408281
_cell_angle_alpha   90.954969820676435300
_cell_angle_beta   94.15967827
_cell_angle_gamma   90.954969820676435300
_symmetry_Int_Tables_number   5
_chemical_formula_structural   Be2BO5
_chemical_formula_sum   'Be4 B2 O10'
_cell_volume   170.08514479
_cell_formula_units_Z   2
loop_
 _symmetry_equiv_pos_site_id
 _symmetry_equiv_pos_as_xyz
  1  'x, y, z'
  2  '-x, y, -z'
  3  'x+1/2, y+1/2, z'
  4  '-x+1/2, y+1/2, -z'
loop_
 _atom_site_type_symbol
 _atom_site_label
 _atom_site_symmetry_multiplicity
 _atom_site_fract_x
 _atom_site_fract_y
 _atom_site_fract_z
 _atom_site_occupancy
  Be  Be0  4  0.8355383774959074  0.5371145926186199  0.10038614871419363  1
  B  B1  2  0.9549698206764353  0.04001450777140306  0.9549698206764353  1
  O  O2  4  0.34692039173366973  0.38687136094995506  0.006598651802459467  1
  O  O3  4  0.8435344602784193  0.5177670429806139  0.4375998042583349  1
  O  O4  2  0.9549698206764353  0.3521235199048233  0.9549698206764353  1
