# generated using pymatgen
data_Tl3VO4
_symmetry_space_group_name_H-M   Imm2
_cell_length_a   6.02005816
_cell_length_b   8.48332648
_cell_length_c   6.62915019
_cell_angle_alpha   90.79322468001989600
_cell_angle_beta   90.79322468001989600
_cell_angle_gamma   90.79322468001989600
_symmetry_Int_Tables_number   44
_chemical_formula_structural   Tl3VO4
_chemical_formula_sum   'Tl6 V2 O8'
_cell_volume   338.55148801
_cell_formula_units_Z   2
loop_
 _symmetry_equiv_pos_site_id
 _symmetry_equiv_pos_as_xyz
  1  'x, y, z'
  2  '-x, -y, z'
  3  '-x, y, z'
  4  'x, -y, z'
  5  'x+1/2, y+1/2, z+1/2'
  6  '-x+1/2, -y+1/2, z+1/2'
  7  '-x+1/2, y+1/2, z+1/2'
  8  'x+1/2, -y+1/2, z+1/2'
loop_
 _atom_site_type_symbol
 _atom_site_label
 _atom_site_symmetry_multiplicity
 _atom_site_fract_x
 _atom_site_fract_y
 _atom_site_fract_z
 _atom_site_occupancy
  Tl  Tl0  4  0.793224680019896  0.23474873511485667  0.29277052240196005  1
  Tl  Tl1  2  0.793224680019896  0.793224680019896  0.65608392096066  1
  V  V2  2  0.793224680019896  0.33524956317243354  0.07206917238647773  1
  O  O3  4  0.793224680019896  0.376563035044851  0.8612614191330326  1
  O  O4  4  0.21511687130432555  0.33524956317243354  0.8865813545335146  1
