# generated using pymatgen
data_Tl3VO4
_symmetry_space_group_name_H-M   Imm2
_cell_length_a   6.02005816
_cell_length_b   8.48332648
_cell_length_c   6.62915019
_cell_angle_alpha   90.13809449303713400
_cell_angle_beta   90.13809449303713400
_cell_angle_gamma   90.13809449303713400
_symmetry_Int_Tables_number   44
_chemical_formula_structural   Tl3VO4
_chemical_formula_sum   'Tl6 V2 O8'
_cell_volume   338.55148801
_cell_formula_units_Z   2
loop_
 _symmetry_equiv_pos_site_id
 _symmetry_equiv_pos_as_xyz
  1  'x, y, z'
  2  '-x, -y, z'
  3  '-x, y, z'
  4  'x, -y, z'
  5  'x+1/2, y+1/2, z+1/2'
  6  '-x+1/2, -y+1/2, z+1/2'
  7  '-x+1/2, y+1/2, z+1/2'
  8  'x+1/2, -y+1/2, z+1/2'
loop_
 _atom_site_type_symbol
 _atom_site_label
 _atom_site_symmetry_multiplicity
 _atom_site_fract_x
 _atom_site_fract_y
 _atom_site_fract_z
 _atom_site_occupancy
  Tl  Tl0  4  0.138094493037134  0.22226454152253516  0.44800230550779735  1
  Tl  Tl1  2  0.138094493037134  0.138094493037134  0.9124116845376303  1
  V  V2  2  0.138094493037134  0.030701162260840072  0.8562032494666129  1
  O  O3  4  0.138094493037134  0.6736637159385512  0.9930890198403013  1
  O  O4  4  0.2645166673968236  0.030701162260840072  0.7313670355896374  1
