# generated using pymatgen
data_Hg2ClO
_symmetry_space_group_name_H-M   P-1
_cell_length_a   6.76787856
_cell_length_b   7.17838638
_cell_length_c   9.87489658
_cell_angle_alpha   74.20632860
_cell_angle_beta   89.32626186
_cell_angle_gamma   62.15305412
_symmetry_Int_Tables_number   2
_chemical_formula_structural   Hg2ClO
_chemical_formula_sum   'Hg8 Cl4 O4'
_cell_volume   404.40678984
_cell_formula_units_Z   4
loop_
 _symmetry_equiv_pos_site_id
 _symmetry_equiv_pos_as_xyz
  1  'x, y, z'
  2  '-x, -y+439/441, -z+1/1000'
  3  'x+y+1/441, -y+439/441, -z+349/697'
  4  '-x-y+440/441, y, z+1/2'
loop_
 _atom_site_type_symbol
 _atom_site_label
 _atom_site_symmetry_multiplicity
 _atom_site_fract_x
 _atom_site_fract_y
 _atom_site_fract_z
 _atom_site_occupancy
  Hg  Hg0  4  0.12396711849970332  0.16203976643322507  0.05894500368505738  1
  Hg  Hg1  2  0.42862149647602416  0.6931092556184086  0.6931092556184086  1
  Hg  Hg2  2  0.3028710665029923  0.8110489136605807  0.4374399445915189  1
  Cl  Cl3  4  0.9793041336121638  0.3374957643446782  0.20929445083704298  1
  O  O4  4  0.1457949963685868  0.9736421092535322  0.9537748070821052  1
