# generated using pymatgen
data_Be2BO5
_symmetry_space_group_name_H-M   C2
_cell_length_a   7.80114479
_cell_length_b   4.43044299
_cell_length_c   4.93408281
_cell_angle_alpha   90.496729582353209400
_cell_angle_beta   94.15967827
_cell_angle_gamma   90.496729582353209400
_symmetry_Int_Tables_number   5
_chemical_formula_structural   Be2BO5
_chemical_formula_sum   'Be4 B2 O10'
_cell_volume   170.08514479
_cell_formula_units_Z   2
loop_
 _symmetry_equiv_pos_site_id
 _symmetry_equiv_pos_as_xyz
  1  'x, y, z'
  2  '-x, y, -z'
  3  'x+1/2, y+1/2, z'
  4  '-x+1/2, y+1/2, -z'
loop_
 _atom_site_type_symbol
 _atom_site_label
 _atom_site_symmetry_multiplicity
 _atom_site_fract_x
 _atom_site_fract_y
 _atom_site_fract_z
 _atom_site_occupancy
  Be  Be0  4  0.6694771450446334  0.1620743967339037  0.774754391595983  1
  B  B1  2  0.4967295823532094  0.41207399440252745  0.4967295823532094  1
  O  O2  4  0.22970540700587075  0.854772499488145  0.12914890820675543  1
  O  O3  4  0.2591659581164097  0.684092800861168  0.48031791927325246  1
  O  O4  2  0.4967295823532094  0.7238926126892932  0.4967295823532094  1
