# generated using pymatgen
data_Mg2CoH5
_symmetry_space_group_name_H-M   P4/nmm
_cell_length_a   4.45143486
_cell_length_b   4.45143486
_cell_length_c   6.54665155
_cell_angle_alpha   90.1839910855287960600
_cell_angle_beta   90.1839910855287960600
_cell_angle_gamma   90.1839910855287960600
_symmetry_Int_Tables_number   129
_chemical_formula_structural   Mg2CoH5
_chemical_formula_sum   'Mg4 Co2 H10'
_cell_volume   129.72368320
_cell_formula_units_Z   2
loop_
 _symmetry_equiv_pos_site_id
 _symmetry_equiv_pos_as_xyz
  1  'x, y, z'
  2  '-y+1/2, x+1/2, z'
  3  '-x, -y, z'
  4  'y+1/2, -x+1/2, z'
  5  'x+1/2, -y+1/2, -z'
  6  '-y, -x, -z'
  7  '-x+1/2, y+1/2, -z'
  8  'y, x, -z'
  9  '-x+1/2, -y+1/2, -z'
  10  'y, -x, -z'
  11  'x+1/2, y+1/2, -z'
  12  '-y, x, -z'
  13  '-x, y, z'
  14  'y+1/2, x+1/2, z'
  15  'x, -y, z'
  16  '-y+1/2, -x+1/2, z'
loop_
 _atom_site_type_symbol
 _atom_site_label
 _atom_site_symmetry_multiplicity
 _atom_site_fract_x
 _atom_site_fract_y
 _atom_site_fract_z
 _atom_site_occupancy
  Mg  Mg0  2  0.18399108552879606  0.18399108552879606  0.18399108552879606  1
  Mg  Mg1  2  0.18399108552879606  0.18399108552879606  0.64882717423601  1
  Co  Co2  2  0.18399108552879606  0.64882717423601  0.6965313372928701  1
  H  H3  8  0.18539817246187762  0.31466676680247585  0.7763309345442614  1
  H  H4  2  0.18399108552879606  0.64882717423601  0.467662064293746  1
