# generated using pymatgen
data_Na3AsS3
_symmetry_space_group_name_H-M   P2_13
_cell_length_a   8.63413982
_cell_length_b   8.63413982
_cell_length_c   8.63413982
_cell_angle_alpha   90.00000000
_cell_angle_beta   90.00000000
_cell_angle_gamma   90.00000000
_symmetry_Int_Tables_number   198
_chemical_formula_structural   Na3AsS3
_chemical_formula_sum   'Na12 As4 S12'
_cell_volume   643.66105366
_cell_formula_units_Z   4
loop_
 _symmetry_equiv_pos_site_id
 _symmetry_equiv_pos_as_xyz
  1  'x, y, z'
  2  '-x+1/2, -y, z+1/2'
  3  'x+1/2, -y+1/2, -z'
  4  '-x, y+1/2, -z+1/2'
  5  'z, x, y'
  6  'z+1/2, -x+1/2, -y'
  7  '-z, x+1/2, -y+1/2'
  8  '-z+1/2, -x, y+1/2'
  9  'y, z, x'
  10  '-y, z+1/2, -x+1/2'
  11  '-y+1/2, -z, x+1/2'
  12  'y+1/2, -z+1/2, -x'
loop_
 _atom_site_type_symbol
 _atom_site_label
 _atom_site_symmetry_multiplicity
 _atom_site_fract_x
 _atom_site_fract_y
 _atom_site_fract_z
 _atom_site_occupancy
  Na  Na0  4  0.22805952127491058  0.6919661085958895  0.4266780882330858  1
  Na  Na1  4  0.38100077044580977  0.26598760134699606  0.3481407186831295  1
  Na  Na2  4  0.29173443848853736  0.6595924253935754  0.6809601675824877  1
  As  As3  4  0.5201469134308663  0.5201469134308663  0.5201469134308663  1
  S  S4  12  0.0831541717630783  0.5197065470088812  0.6151708068931518  1
