# generated using pymatgen
data_AgF2
_symmetry_space_group_name_H-M   P2_1/c
_cell_length_a   3.71136900
_cell_length_b   5.12801800
_cell_length_c   5.98009114
_cell_angle_alpha   90.0
_cell_angle_beta   122.76912183
_cell_angle_gamma   90.0
_symmetry_Int_Tables_number   14
_chemical_formula_structural   AgF2
_chemical_formula_sum   'Ag2 F4'
_cell_volume   95.70053337
_cell_formula_units_Z   2
loop_
 _symmetry_equiv_pos_site_id
 _symmetry_equiv_pos_as_xyz
  1  'x, y, z'
  2  '-x, -y, -z'
  3  '-x, y+1/2, -z+1/2'
  4  'x, -y+1/2, z+1/2'
loop_
 _atom_site_type_symbol
 _atom_site_label
 _atom_site_symmetry_multiplicity
 _atom_site_fract_x
 _atom_site_fract_y
 _atom_site_fract_z
 _atom_site_occupancy
  Ag  Ag0  2  0.0  0.0  0.0  1
  F  F1  4  0.8998898804122138  0.20683409016335547  0.08719403071367923  1
