# generated using pymatgen
data_As2Ir
_symmetry_space_group_name_H-M   P2_1/c
_cell_length_a   6.14348200
_cell_length_b   6.15188200
_cell_length_c   6.24867269
_cell_angle_alpha   90.00000000
_cell_angle_beta   113.02820359
_cell_angle_gamma   90.00000000
_symmetry_Int_Tables_number   14
_chemical_formula_structural   As2Ir
_chemical_formula_sum   'As8 Ir4'
_cell_volume   217.34299131
_cell_formula_units_Z   4
loop_
 _symmetry_equiv_pos_site_id
 _symmetry_equiv_pos_as_xyz
  1  'x, y, z'
  2  '-x, -y, -z'
  3  '-x, y+1/2, -z+1/2'
  4  'x, -y+1/2, z+1/2'
loop_
 _atom_site_type_symbol
 _atom_site_label
 _atom_site_symmetry_multiplicity
 _atom_site_fract_x
 _atom_site_fract_y
 _atom_site_fract_z
 _atom_site_occupancy
  As  As0  4  0.42326786656784215  0.5482644765534685  0.29030569137964796  1
  As  As1  4  0.6050667527357788  0.04745477720825536  0.8044350030681493  1
  Ir  Ir2  4  0.5436402883315258  0.013112009353161416  0.10543829831113209  1
