# generated using pymatgen
data_MgP4
_symmetry_space_group_name_H-M   P2_1/c
_cell_length_a   5.19037900
_cell_length_b   5.11868200
_cell_length_c   7.59668713
_cell_angle_alpha   90.07172453830984463
_cell_angle_beta   98.56618503
_cell_angle_gamma   90.07172453830984463
_symmetry_Int_Tables_number   14
_chemical_formula_structural   MgP4
_chemical_formula_sum   'Mg2 P8'
_cell_volume   199.57652056
_cell_formula_units_Z   2
loop_
 _symmetry_equiv_pos_site_id
 _symmetry_equiv_pos_as_xyz
  1  'x, y, z'
  2  '-x, -y, -z'
  3  '-x, y+1/2, -z+1/2'
  4  'x, -y+1/2, z+1/2'
loop_
 _atom_site_type_symbol
 _atom_site_label
 _atom_site_symmetry_multiplicity
 _atom_site_fract_x
 _atom_site_fract_y
 _atom_site_fract_z
 _atom_site_occupancy
  Mg  Mg0  2  0.07172453830984463  0.07172453830984463  0.07172453830984463  1
  P  P1  4  0.22262973920284146  0.2087044840278914  0.7130266852990798  1
  P  P2  4  0.4787347602090097  0.6435640837886384  0.0017527938933845696  1
