# generated using pymatgen
data_RuF4
_symmetry_space_group_name_H-M   P2_1/c
_cell_length_a   5.44646800
_cell_length_b   5.05548900
_cell_length_c   5.51845328
_cell_angle_alpha   90.6413442278709548
_cell_angle_beta   117.09190277
_cell_angle_gamma   90.6413442278709548
_symmetry_Int_Tables_number   14
_chemical_formula_structural   RuF4
_chemical_formula_sum   'Ru2 F8'
_cell_volume   135.27599455
_cell_formula_units_Z   2
loop_
 _symmetry_equiv_pos_site_id
 _symmetry_equiv_pos_as_xyz
  1  'x, y, z'
  2  '-x, -y, -z'
  3  '-x, y+1/2, -z+1/2'
  4  'x, -y+1/2, z+1/2'
loop_
 _atom_site_type_symbol
 _atom_site_label
 _atom_site_symmetry_multiplicity
 _atom_site_fract_x
 _atom_site_fract_y
 _atom_site_fract_z
 _atom_site_occupancy
  Ru  Ru0  2  0.6413442278709548  0.6413442278709548  0.9374617896951312  1
  F  F1  4  0.17013258755997346  0.8897657328704436  0.2505423575962995  1
  F  F2  4  0.37579288338380357  0.12128312118548877  0.7028754772469685  1
