# generated using pymatgen
data_SiPtSe
_symmetry_space_group_name_H-M   Pca2_1
_cell_length_a   5.99530000
_cell_length_b   6.09495300
_cell_length_c   5.94753500
_cell_angle_alpha   90.00000000
_cell_angle_beta   90.00000000
_cell_angle_gamma   90.00000000
_symmetry_Int_Tables_number   29
_chemical_formula_structural   SiPtSe
_chemical_formula_sum   'Si4 Pt4 Se4'
_cell_volume   217.32930300
_cell_formula_units_Z   4
loop_
 _symmetry_equiv_pos_site_id
 _symmetry_equiv_pos_as_xyz
  1  'x, y, z'
  2  '-x, -y, z+1/2'
  3  '-x+1/2, y, z+1/2'
  4  'x+1/2, -y, z'
loop_
 _atom_site_type_symbol
 _atom_site_label
 _atom_site_symmetry_multiplicity
 _atom_site_fract_x
 _atom_site_fract_y
 _atom_site_fract_z
 _atom_site_occupancy
  Si  Si0  4  0.01946646091142064  0.3044506492883354  0.09849811187375258  1
  Pt  Pt1  4  0.10417211676669817  0.0690096061831478  0.5311963874814741  1
  Se  Se2  4  0.8492887526326628  0.1033626856424025  0.7505442947473702  1
