# generated using pymatgen
data_YbPO4
_symmetry_space_group_name_H-M   I4_1/amd
_cell_length_a   7.00603400
_cell_length_b   7.00603400
_cell_length_c   6.14589400
_cell_angle_alpha   90.9787830697764796
_cell_angle_beta   90.9787830697764796
_cell_angle_gamma   90.9787830697764796
_symmetry_Int_Tables_number   141
_chemical_formula_structural   YbPO4
_chemical_formula_sum   'Yb4 P4 O16'
_cell_volume   301.66821031
_cell_formula_units_Z   4
loop_
 _symmetry_equiv_pos_site_id
 _symmetry_equiv_pos_as_xyz
  1  'x, y, z'
  2  '-y+1/2, x, z+3/4'
  3  '-x, -y, z'
  4  'y+1/2, -x, z+3/4'
  5  'x+1/2, -y, -z+3/4'
  6  '-y, -x, -z'
  7  '-x+1/2, y, -z+3/4'
  8  'y, x, -z'
  9  '-x+1/2, -y, -z+3/4'
  10  'y, -x, -z'
  11  'x+1/2, y, -z+3/4'
  12  '-y, x, -z'
  13  '-x, y, z'
  14  'y+1/2, x, z+3/4'
  15  'x, -y, z'
  16  '-y+1/2, -x, z+3/4'
  17  'x+1/2, y+1/2, z+1/2'
  18  '-y, x+1/2, z+1/4'
  19  '-x+1/2, -y+1/2, z+1/2'
  20  'y, -x+1/2, z+1/4'
  21  'x, -y+1/2, -z+1/4'
  22  '-y+1/2, -x+1/2, -z+1/2'
  23  '-x, y+1/2, -z+1/4'
  24  'y+1/2, x+1/2, -z+1/2'
  25  '-x, -y+1/2, -z+1/4'
  26  'y+1/2, -x+1/2, -z+1/2'
  27  'x, y+1/2, -z+1/4'
  28  '-y+1/2, x+1/2, -z+1/2'
  29  '-x+1/2, y+1/2, z+1/2'
  30  'y, x+1/2, z+1/4'
  31  'x+1/2, -y+1/2, z+1/2'
  32  '-y, -x+1/2, z+1/4'
loop_
 _atom_site_type_symbol
 _atom_site_label
 _atom_site_symmetry_multiplicity
 _atom_site_fract_x
 _atom_site_fract_y
 _atom_site_fract_z
 _atom_site_occupancy
  Yb  Yb0  4  0.9787830697764796  0.9787830697764796  0.9787830697764796  1
  P  P1  4  0.9787830697764796  0.9787830697764796  0.08944035109522051  1
  O  O2  16  0.9787830697764796  0.8633160509655506  0.3288218575013791  1
