# generated using pymatgen
data_CrN2
_symmetry_space_group_name_H-M 'P3221'
_cell_length_a   5.42364147
_cell_length_b   5.42364147
_cell_length_c   5.88352640
_cell_angle_alpha   90.00000000
_cell_angle_beta   90.00000000
_cell_angle_gamma   120.00000000
_symmetry_Int_Tables_number                  154
_chemical_formula_structural   CrN2
_chemical_formula_sum   'Cr3 N6'
_cell_volume   149.88227751
_cell_formula_units_Z   3
loop_
 _symmetry_equiv_pos_site_id
 _symmetry_equiv_pos_as_xyz
1 'x, y, z'
2 '-y, x-y, z+2/3'
3 '-x+y, -x, z+1/3'
4 'y, x, -z'
5 'x-y, -y, -z+1/3'
6 '-x, -x+y, -z+2/3'

loop_
 _atom_site_type_symbol
 _atom_site_label
 _atom_site_symmetry_multiplicity
 _atom_site_fract_x
 _atom_site_fract_y
 _atom_site_fract_z
 _atom_site_occupancy
  Cr  Cr0  3  0.706721  0.000000  0.166667  1
  N  N1  6  0.317623  0.755087  0.246911  1
