# generated using pymatgen
data_CeSe2
_symmetry_space_group_name_H-M 'Fmm2'
_cell_length_a   4.08143978
_cell_length_b   24.28905952
_cell_length_c   7.08031082
_cell_angle_alpha   90.00000000
_cell_angle_beta   90.00000000
_cell_angle_gamma   90.00000000
_symmetry_Int_Tables_number                   42
_chemical_formula_structural   CeSe2
_chemical_formula_sum   'Ce4 Se8'
_cell_volume   701.90189584
_cell_formula_units_Z   4
loop_
 _symmetry_equiv_pos_site_id
 _symmetry_equiv_pos_as_xyz
1 'x, y, z'
2 '-x, -y, z'
3 'x, -y, z'
4 '-x, y, z'
5 'x, y+1/2, z+1/2'
6 '-x, -y+1/2, z+1/2'
7 'x, -y+1/2, z+1/2'
8 '-x, y+1/2, z+1/2'
9 'x+1/2, y, z+1/2'
10 '-x+1/2, -y, z+1/2'
11 'x+1/2, -y, z+1/2'
12 '-x+1/2, y, z+1/2'
13 'x+1/2, y+1/2, z'
14 '-x+1/2, -y+1/2, z'
15 'x+1/2, -y+1/2, z'
16 '-x+1/2, y+1/2, z'

loop_
 _atom_site_type_symbol
 _atom_site_label
 _atom_site_symmetry_multiplicity
 _atom_site_fract_x
 _atom_site_fract_y
 _atom_site_fract_z
 _atom_site_occupancy
  Ce  Ce0  4  0.000000  0.000000  0.461999  1
  Se  Se1  8  0.250000  0.250000  0.029340  1
