# generated using pymatgen
data_NdSi3Ir
_symmetry_space_group_name_H-M 'I4mm'
_cell_length_a   4.26283735
_cell_length_b   4.26283735
_cell_length_c   9.88230914
_cell_angle_alpha   90.00000000
_cell_angle_beta   90.00000000
_cell_angle_gamma   90.00000000
_symmetry_Int_Tables_number                  107
_chemical_formula_structural   NdSi3Ir
_chemical_formula_sum   'Nd2 Si6 Ir2'
_cell_volume   179.57917004
_cell_formula_units_Z   2
loop_
 _symmetry_equiv_pos_site_id
 _symmetry_equiv_pos_as_xyz
1 'x, y, z'
2 '-x, -y, z'
3 '-y, x, z'
4 'y, -x, z'
5 'x, -y, z'
6 '-x, y, z'
7 '-y, -x, z'
8 'y, x, z'
9 'x+1/2, y+1/2, z+1/2'
10 '-x+1/2, -y+1/2, z+1/2'
11 '-y+1/2, x+1/2, z+1/2'
12 'y+1/2, -x+1/2, z+1/2'
13 'x+1/2, -y+1/2, z+1/2'
14 '-x+1/2, y+1/2, z+1/2'
15 '-y+1/2, -x+1/2, z+1/2'
16 'y+1/2, x+1/2, z+1/2'

loop_
 _atom_site_type_symbol
 _atom_site_label
 _atom_site_symmetry_multiplicity
 _atom_site_fract_x
 _atom_site_fract_y
 _atom_site_fract_z
 _atom_site_occupancy
  Nd  Nd0  2  0.000000  0.000000  0.274993  1
  Si  Si1  4  0.000000  0.500000  0.798952  1
  Si  Si2  2  0.000000  0.000000  0.468206  1
  Ir  Ir3  2  0.000000  0.000000  0.641359  1
