# generated using pymatgen
data_Mg(BH4)2
_symmetry_space_group_name_H-M 'P-4n2'
_cell_length_a   5.62095379
_cell_length_b   5.62095379
_cell_length_c   5.94846569
_cell_angle_alpha   90.00000000
_cell_angle_beta   90.00000000
_cell_angle_gamma   90.00000000
_symmetry_Int_Tables_number                  118
_chemical_formula_structural   Mg(BH4)2
_chemical_formula_sum   'Mg2 B4 H16'
_cell_volume   187.94249627
_cell_formula_units_Z   2
loop_
 _symmetry_equiv_pos_site_id
 _symmetry_equiv_pos_as_xyz
1 'x, y, z'
2 '-x, -y, z'
3 'y, -x, -z'
4 '-y, x, -z'
5 'x+1/2, -y+1/2, z+1/2'
6 '-x+1/2, y+1/2, z+1/2'
7 'y+1/2, x+1/2, -z+1/2'
8 '-y+1/2, -x+1/2, -z+1/2'

loop_
 _atom_site_type_symbol
 _atom_site_label
 _atom_site_symmetry_multiplicity
 _atom_site_fract_x
 _atom_site_fract_y
 _atom_site_fract_z
 _atom_site_occupancy
  Mg  Mg0  2  0.000000  0.000000  0.000000  1
  B  B1  2  0.000000  0.500000  0.750000  1
  B  B2  2  0.000000  0.500000  0.250000  1
  H  H3  8  0.379532  0.543717  0.243195  1
  H  H4  8  0.318585  0.653931  0.818599  1
