# generated using pymatgen
data_K(Mo2O3)2
_symmetry_space_group_name_H-M 'P4/mbm'
_cell_length_a   10.11282115
_cell_length_b   10.11282115
_cell_length_c   3.27243694
_cell_angle_alpha   90.00000000
_cell_angle_beta   90.00000000
_cell_angle_gamma   90.00000000
_symmetry_Int_Tables_number                  127
_chemical_formula_structural   K(Mo2O3)2
_chemical_formula_sum   'K2 Mo8 O12'
_cell_volume   334.66934956
_cell_formula_units_Z   2
loop_
 _symmetry_equiv_pos_site_id
 _symmetry_equiv_pos_as_xyz
1 'x, y, z'
2 '-x, -y, z'
3 '-y, x, z'
4 'y, -x, z'
5 '-x+1/2, y+1/2, -z'
6 'x+1/2, -y+1/2, -z'
7 'y+1/2, x+1/2, -z'
8 '-y+1/2, -x+1/2, -z'
9 '-x, -y, -z'
10 'x, y, -z'
11 'y, -x, -z'
12 '-y, x, -z'
13 'x+1/2, -y+1/2, z'
14 '-x+1/2, y+1/2, z'
15 '-y+1/2, -x+1/2, z'
16 'y+1/2, x+1/2, z'

loop_
 _atom_site_type_symbol
 _atom_site_label
 _atom_site_symmetry_multiplicity
 _atom_site_fract_x
 _atom_site_fract_y
 _atom_site_fract_z
 _atom_site_occupancy
  K  K0  2  0.000000  0.000000  0.000000  1
  Mo  Mo1  2  0.000000  0.500000  0.500000  1
  Mo  Mo2  4  0.349738  0.849738  0.500000  1
  Mo  Mo3  2  0.000000  0.500000  0.000000  1
  O  O4  8  0.245377  0.961772  0.000000  1
  O  O5  4  0.143516  0.643516  0.500000  1
