# generated using pymatgen
data_KSnN3
_symmetry_space_group_name_H-M 'P-3'
_cell_length_a   6.78198850
_cell_length_b   6.78198850
_cell_length_c   7.83129217
_cell_angle_alpha   90.00000000
_cell_angle_beta   90.00000000
_cell_angle_gamma   120.00000000
_symmetry_Int_Tables_number                  147
_chemical_formula_structural   KSnN3
_chemical_formula_sum   'K2 Sn2 N6'
_cell_volume   311.94509175
_cell_formula_units_Z   2
loop_
 _symmetry_equiv_pos_site_id
 _symmetry_equiv_pos_as_xyz
1 'x, y, z'
2 '-y, x-y, z'
3 '-x+y, -x, z'
4 '-x, -y, -z'
5 'y, -x+y, -z'
6 'x-y, x, -z'

loop_
 _atom_site_type_symbol
 _atom_site_label
 _atom_site_symmetry_multiplicity
 _atom_site_fract_x
 _atom_site_fract_y
 _atom_site_fract_z
 _atom_site_occupancy
  K  K0  2  0.333333  0.666667  0.728999  1
  Sn  Sn1  1  0.000000  0.000000  0.000000  1
  Sn  Sn2  1  0.000000  0.000000  0.500000  1
  N  N3  6  0.737375  0.702645  0.334674  1
