# generated using pymatgen
data_Mn2NiO14
_symmetry_space_group_name_H-M 'P3m1'
_cell_length_a   7.62559129
_cell_length_b   7.62559129
_cell_length_c   4.48038913
_cell_angle_alpha   90.00000000
_cell_angle_beta   90.00000000
_cell_angle_gamma   120.00000000
_symmetry_Int_Tables_number                  156
_chemical_formula_structural   Mn2NiO14
_chemical_formula_sum   'Mn2 Ni1 O14'
_cell_volume   225.62821927
_cell_formula_units_Z   1
loop_
 _symmetry_equiv_pos_site_id
 _symmetry_equiv_pos_as_xyz
1 'x, y, z'
2 '-y, x-y, z'
3 '-x+y, -x, z'
4 '-y, -x, z'
5 '-x+y, y, z'
6 'x, x-y, z'

loop_
 _atom_site_type_symbol
 _atom_site_label
 _atom_site_symmetry_multiplicity
 _atom_site_fract_x
 _atom_site_fract_y
 _atom_site_fract_z
 _atom_site_occupancy
  Mn  Mn0  1  0.000000  0.000000  0.005807  1
  Mn  Mn1  1  0.333333  0.666667  0.857935  1
  Ni  Ni2  1  0.333333  0.666667  0.386147  1
  O  O3  3  0.805844  0.194156  0.411856  1
  O  O4  1  0.000000  0.000000  0.340347  1
  O  O5  6  0.256229  0.929858  0.244825  1
  O  O6  3  0.211491  0.788509  0.347794  1
  O  O7  1  0.666667  0.333333  0.093052  1
