# generated using pymatgen
data_In(IO3)3
_symmetry_space_group_name_H-M 'P63'
_cell_length_a   9.72271990
_cell_length_b   9.72271990
_cell_length_c   5.42318386
_cell_angle_alpha   90.00000000
_cell_angle_beta   90.00000000
_cell_angle_gamma   120.00000000
_symmetry_Int_Tables_number                  173
_chemical_formula_structural   In(IO3)3
_chemical_formula_sum   'In2 I6 O18'
_cell_volume   443.97703746
_cell_formula_units_Z   2
loop_
 _symmetry_equiv_pos_site_id
 _symmetry_equiv_pos_as_xyz
1 'x, y, z'
2 '-y, x-y, z'
3 '-x+y, -x, z'
4 '-x, -y, z+1/2'
5 'y, -x+y, z+1/2'
6 'x-y, x, z+1/2'

loop_
 _atom_site_type_symbol
 _atom_site_label
 _atom_site_symmetry_multiplicity
 _atom_site_fract_x
 _atom_site_fract_y
 _atom_site_fract_z
 _atom_site_occupancy
  In  In0  2  0.333333  0.666667  0.766441  1
  I  I1  2  0.000000  0.000000  0.375376  1
  I  I2  2  0.333333  0.666667  0.440569  1
  I  I3  2  0.333333  0.666667  0.053464  1
  O  O4  6  0.464840  0.346339  0.088600  1
  O  O5  6  0.801205  0.920240  0.721721  1
  O  O6  6  0.620752  0.915077  0.948913  1
