# generated using pymatgen
data_Sr3ZrN3
_symmetry_space_group_name_H-M 'P63/m'
_cell_length_a   8.22785605
_cell_length_b   8.22785605
_cell_length_c   5.38559400
_cell_angle_alpha   90.00000000
_cell_angle_beta   90.00000000
_cell_angle_gamma   120.00000000
_symmetry_Int_Tables_number                  176
_chemical_formula_structural   Sr3ZrN3
_chemical_formula_sum   'Sr6 Zr2 N6'
_cell_volume   315.74582154
_cell_formula_units_Z   2
loop_
 _symmetry_equiv_pos_site_id
 _symmetry_equiv_pos_as_xyz
1 'x, y, z'
2 '-y, x-y, z'
3 '-x+y, -x, z'
4 '-x, -y, z+1/2'
5 'y, -x+y, z+1/2'
6 'x-y, x, z+1/2'
7 '-x, -y, -z'
8 'y, -x+y, -z'
9 'x-y, x, -z'
10 'x, y, -z+1/2'
11 '-y, x-y, -z+1/2'
12 '-x+y, -x, -z+1/2'

loop_
 _atom_site_type_symbol
 _atom_site_label
 _atom_site_symmetry_multiplicity
 _atom_site_fract_x
 _atom_site_fract_y
 _atom_site_fract_z
 _atom_site_occupancy
  Sr  Sr0  6  0.082717  0.823523  0.250000  1
  Zr  Zr1  2  0.666667  0.333333  0.250000  1
  N  N2  2  0.333333  0.666667  0.250000  1
  N  N3  2  0.000000  0.000000  0.000000  1
  N  N4  2  0.000000  0.000000  0.250000  1
