# generated using pymatgen
data_Ba3Te2O9
_symmetry_space_group_name_H-M 'P63/mmc'
_cell_length_a   5.95466409
_cell_length_b   5.95466409
_cell_length_c   14.62747189
_cell_angle_alpha   90.00000000
_cell_angle_beta   90.00000000
_cell_angle_gamma   120.00000000
_symmetry_Int_Tables_number                  194
_chemical_formula_structural   Ba3Te2O9
_chemical_formula_sum   'Ba6 Te4 O18'
_cell_volume   449.17382326
_cell_formula_units_Z   2
loop_
 _symmetry_equiv_pos_site_id
 _symmetry_equiv_pos_as_xyz
1 'x, y, z'
2 '-y, x-y, z'
3 '-x+y, -x, z'
4 '-x, -y, z+1/2'
5 'y, -x+y, z+1/2'
6 'x-y, x, z+1/2'
7 'y, x, -z'
8 'x-y, -y, -z'
9 '-x, -x+y, -z'
10 '-y, -x, -z+1/2'
11 '-x+y, y, -z+1/2'
12 'x, x-y, -z+1/2'
13 '-x, -y, -z'
14 'y, -x+y, -z'
15 'x-y, x, -z'
16 'x, y, -z+1/2'
17 '-y, x-y, -z+1/2'
18 '-x+y, -x, -z+1/2'
19 '-y, -x, z'
20 '-x+y, y, z'
21 'x, x-y, z'
22 'y, x, z+1/2'
23 'x-y, -y, z+1/2'
24 '-x, -x+y, z+1/2'

loop_
 _atom_site_type_symbol
 _atom_site_label
 _atom_site_symmetry_multiplicity
 _atom_site_fract_x
 _atom_site_fract_y
 _atom_site_fract_z
 _atom_site_occupancy
  Ba  Ba0  2  0.333333  0.666667  0.250000  1
  Ba  Ba1  2  0.000000  0.000000  0.250000  1
  Ba  Ba2  2  0.333333  0.666667  0.750000  1
  Te  Te3  4  0.000000  0.000000  0.577148  1
  O  O4  12  0.128417  0.000000  0.000000  1
  O  O5  6  0.500000  0.000000  0.000000  1
