# generated using pymatgen
data_Ni(IO3)2
_symmetry_space_group_name_H-M 'P21'
_cell_length_a   5.48416635
_cell_length_b   5.26004470
_cell_length_c   9.37126090
_cell_angle_alpha   90.00000000
_cell_angle_beta   90.03451743
_cell_angle_gamma   90.00000000
_symmetry_Int_Tables_number                    4
_chemical_formula_structural   Ni(IO3)2
_chemical_formula_sum   'Ni2 I4 O12'
_cell_volume   270.33234062
_cell_formula_units_Z   2
loop_
 _symmetry_equiv_pos_site_id
 _symmetry_equiv_pos_as_xyz
1 'x, y, z'
2 '-x, y+1/2, -z'

loop_
 _atom_site_type_symbol
 _atom_site_label
 _atom_site_symmetry_multiplicity
 _atom_site_fract_x
 _atom_site_fract_y
 _atom_site_fract_z
 _atom_site_occupancy
  Ni  Ni0  2  0.638825  0.341634  0.514086  1
  I  I1  2  0.837212  0.099778  0.180708  1
  I  I2  2  0.355249  0.231453  0.023190  1
  O  O3  2  0.282008  0.955709  0.806700  1
  O  O4  2  0.903749  0.200630  0.592590  1
  O  O5  2  0.280428  0.548874  0.407619  1
  O  O6  2  0.051073  0.917750  0.023247  1
  O  O7  2  0.118426  0.519747  0.570711  1
  O  O8  2  0.732877  0.390544  0.835274  1
