# generated using pymatgen
data_Ni(IO3)2
_symmetry_space_group_name_H-M 'P21'
_cell_length_a   5.48416635
_cell_length_b   5.26004470
_cell_length_c   9.37126090
_cell_angle_alpha   90.00000000
_cell_angle_beta   90.03451743
_cell_angle_gamma   90.00000000
_symmetry_Int_Tables_number                    4
_chemical_formula_structural   Ni(IO3)2
_chemical_formula_sum   'Ni2 I4 O12'
_cell_volume   270.33234062
_cell_formula_units_Z   2
loop_
 _symmetry_equiv_pos_site_id
 _symmetry_equiv_pos_as_xyz
1 'x, y, z'
2 '-x, y+1/2, -z'

loop_
 _atom_site_type_symbol
 _atom_site_label
 _atom_site_symmetry_multiplicity
 _atom_site_fract_x
 _atom_site_fract_y
 _atom_site_fract_z
 _atom_site_occupancy
  Ni  Ni0  2  0.545916  0.822314  0.552493  1
  I  I1  2  0.976522  0.420635  0.167461  1
  I  I2  2  0.757189  0.586754  0.683262  1
  O  O3  2  0.793239  0.549130  0.285001  1
  O  O4  2  0.894800  0.838064  0.916924  1
  O  O5  2  0.402166  0.738753  0.958085  1
  O  O6  2  0.386853  0.865713  0.808900  1
  O  O7  2  0.548462  0.672159  0.823406  1
  O  O8  2  0.693364  0.041868  0.804909  1
