# generated using pymatgen
data_Ni(IO3)2
_symmetry_space_group_name_H-M 'P21'
_cell_length_a   5.48416635
_cell_length_b   5.26004470
_cell_length_c   9.37126090
_cell_angle_alpha   90.00000000
_cell_angle_beta   90.03451743
_cell_angle_gamma   90.00000000
_symmetry_Int_Tables_number                    4
_chemical_formula_structural   Ni(IO3)2
_chemical_formula_sum   'Ni2 I4 O12'
_cell_volume   270.33234062
_cell_formula_units_Z   2
loop_
 _symmetry_equiv_pos_site_id
 _symmetry_equiv_pos_as_xyz
1 'x, y, z'
2 '-x, y+1/2, -z'

loop_
 _atom_site_type_symbol
 _atom_site_label
 _atom_site_symmetry_multiplicity
 _atom_site_fract_x
 _atom_site_fract_y
 _atom_site_fract_z
 _atom_site_occupancy
  Ni  Ni0  2  0.101105  0.498520  0.319126  1
  I  I1  2  0.293082  0.620423  0.654395  1
  I  I2  2  0.540361  0.555354  0.804923  1
  O  O3  2  0.545964  0.586975  0.471993  1
  O  O4  2  0.814575  0.172986  0.938730  1
  O  O5  2  0.819241  0.133733  0.484901  1
  O  O6  2  0.142471  0.888942  0.567054  1
  O  O7  2  0.901900  0.025116  0.545183  1
  O  O8  2  0.720513  0.264643  0.095562  1
