# generated using pymatgen
data_Ni(IO3)2
_symmetry_space_group_name_H-M 'P21'
_cell_length_a   5.48416635
_cell_length_b   5.26004470
_cell_length_c   9.37126090
_cell_angle_alpha   90.00000000
_cell_angle_beta   90.03451743
_cell_angle_gamma   90.00000000
_symmetry_Int_Tables_number                    4
_chemical_formula_structural   Ni(IO3)2
_chemical_formula_sum   'Ni2 I4 O12'
_cell_volume   270.33234062
_cell_formula_units_Z   2
loop_
 _symmetry_equiv_pos_site_id
 _symmetry_equiv_pos_as_xyz
1 'x, y, z'
2 '-x, y+1/2, -z'

loop_
 _atom_site_type_symbol
 _atom_site_label
 _atom_site_symmetry_multiplicity
 _atom_site_fract_x
 _atom_site_fract_y
 _atom_site_fract_z
 _atom_site_occupancy
  Ni  Ni0  2  0.639471  0.129712  0.474950  1
  I  I1  2  0.432319  0.342833  0.935733  1
  I  I2  2  0.139649  0.075184  0.332306  1
  O  O3  2  0.764323  0.102595  0.228454  1
  O  O4  2  0.622784  0.257000  0.140766  1
  O  O5  2  0.362133  0.349947  0.052524  1
  O  O6  2  0.345730  0.157445  0.695435  1
  O  O7  2  0.460919  0.726420  0.593977  1
  O  O8  2  0.809101  0.683384  0.258696  1
