# generated using pymatgen
data_Ni(IO3)2
_symmetry_space_group_name_H-M 'P21'
_cell_length_a   5.48416635
_cell_length_b   5.26004470
_cell_length_c   9.37126090
_cell_angle_alpha   90.00000000
_cell_angle_beta   90.03451743
_cell_angle_gamma   90.00000000
_symmetry_Int_Tables_number                    4
_chemical_formula_structural   Ni(IO3)2
_chemical_formula_sum   'Ni2 I4 O12'
_cell_volume   270.33234062
_cell_formula_units_Z   2
loop_
 _symmetry_equiv_pos_site_id
 _symmetry_equiv_pos_as_xyz
1 'x, y, z'
2 '-x, y+1/2, -z'

loop_
 _atom_site_type_symbol
 _atom_site_label
 _atom_site_symmetry_multiplicity
 _atom_site_fract_x
 _atom_site_fract_y
 _atom_site_fract_z
 _atom_site_occupancy
  Ni  Ni0  2  0.332939  0.314628  0.872388  1
  I  I1  2  0.333295  0.416452  0.264152  1
  I  I2  2  0.142234  0.031910  0.557353  1
  O  O3  2  0.931693  0.971321  0.468781  1
  O  O4  2  0.746329  0.179683  0.937830  1
  O  O5  2  0.002935  0.503727  0.346462  1
  O  O6  2  0.238624  0.403877  0.637287  1
  O  O7  2  0.111021  0.389440  0.883953  1
  O  O8  2  0.688243  0.833771  0.970370  1
