# generated using pymatgen
data_Ni(IO3)2
_symmetry_space_group_name_H-M 'P21'
_cell_length_a   5.48416635
_cell_length_b   5.26004470
_cell_length_c   9.37126090
_cell_angle_alpha   90.00000000
_cell_angle_beta   90.03451743
_cell_angle_gamma   90.00000000
_symmetry_Int_Tables_number                    4
_chemical_formula_structural   Ni(IO3)2
_chemical_formula_sum   'Ni2 I4 O12'
_cell_volume   270.33234062
_cell_formula_units_Z   2
loop_
 _symmetry_equiv_pos_site_id
 _symmetry_equiv_pos_as_xyz
1 'x, y, z'
2 '-x, y+1/2, -z'

loop_
 _atom_site_type_symbol
 _atom_site_label
 _atom_site_symmetry_multiplicity
 _atom_site_fract_x
 _atom_site_fract_y
 _atom_site_fract_z
 _atom_site_occupancy
  Ni  Ni0  2  0.888217  0.316408  0.708208  1
  I  I1  2  0.384420  0.818407  0.391907  1
  I  I2  2  0.730975  0.125411  0.343329  1
  O  O3  2  0.606900  0.722297  0.421484  1
  O  O4  2  0.527708  0.496410  0.308095  1
  O  O5  2  0.576641  0.556298  0.219558  1
  O  O6  2  0.973810  0.484513  0.746806  1
  O  O7  2  0.157921  0.312645  0.093839  1
  O  O8  2  0.800744  0.885068  0.373762  1
