# generated using pymatgen
data_Ni(IO3)2
_symmetry_space_group_name_H-M 'P21'
_cell_length_a   5.48416635
_cell_length_b   5.26004470
_cell_length_c   9.37126090
_cell_angle_alpha   90.00000000
_cell_angle_beta   90.03451743
_cell_angle_gamma   90.00000000
_symmetry_Int_Tables_number                    4
_chemical_formula_structural   Ni(IO3)2
_chemical_formula_sum   'Ni2 I4 O12'
_cell_volume   270.33234062
_cell_formula_units_Z   2
loop_
 _symmetry_equiv_pos_site_id
 _symmetry_equiv_pos_as_xyz
1 'x, y, z'
2 '-x, y+1/2, -z'

loop_
 _atom_site_type_symbol
 _atom_site_label
 _atom_site_symmetry_multiplicity
 _atom_site_fract_x
 _atom_site_fract_y
 _atom_site_fract_z
 _atom_site_occupancy
  Ni  Ni0  2  0.350140  0.847441  0.705009  1
  I  I1  2  0.065701  0.340407  0.073845  1
  I  I2  2  0.974960  0.720666  0.281180  1
  O  O3  2  0.644904  0.685492  0.884547  1
  O  O4  2  0.165259  0.613508  0.384058  1
  O  O5  2  0.138001  0.802256  0.535616  1
  O  O6  2  0.526996  0.077117  0.060830  1
  O  O7  2  0.963149  0.129702  0.912295  1
  O  O8  2  0.387413  0.686579  0.576503  1
