# generated using pymatgen
data_Ni(IO3)2
_symmetry_space_group_name_H-M 'P21'
_cell_length_a   5.48416635
_cell_length_b   5.26004470
_cell_length_c   9.37126090
_cell_angle_alpha   90.00000000
_cell_angle_beta   90.03451743
_cell_angle_gamma   90.00000000
_symmetry_Int_Tables_number                    4
_chemical_formula_structural   Ni(IO3)2
_chemical_formula_sum   'Ni2 I4 O12'
_cell_volume   270.33234062
_cell_formula_units_Z   2
loop_
 _symmetry_equiv_pos_site_id
 _symmetry_equiv_pos_as_xyz
1 'x, y, z'
2 '-x, y+1/2, -z'

loop_
 _atom_site_type_symbol
 _atom_site_label
 _atom_site_symmetry_multiplicity
 _atom_site_fract_x
 _atom_site_fract_y
 _atom_site_fract_z
 _atom_site_occupancy
  Ni  Ni0  2  0.541701  0.804305  0.840184  1
  I  I1  2  0.205201  0.332615  0.061244  1
  I  I2  2  0.272228  0.222691  0.714224  1
  O  O3  2  0.604497  0.448946  0.861370  1
  O  O4  2  0.677841  0.057238  0.001566  1
  O  O5  2  0.022647  0.185201  0.699600  1
  O  O6  2  0.095840  0.996580  0.279951  1
  O  O7  2  0.568700  0.190244  0.534717  1
  O  O8  2  0.634263  0.365489  0.515078  1
