# generated using pymatgen
data_Ni(IO3)2
_symmetry_space_group_name_H-M 'P21'
_cell_length_a   5.48416635
_cell_length_b   5.26004470
_cell_length_c   9.37126090
_cell_angle_alpha   90.00000000
_cell_angle_beta   90.03451743
_cell_angle_gamma   90.00000000
_symmetry_Int_Tables_number                    4
_chemical_formula_structural   Ni(IO3)2
_chemical_formula_sum   'Ni2 I4 O12'
_cell_volume   270.33234062
_cell_formula_units_Z   2
loop_
 _symmetry_equiv_pos_site_id
 _symmetry_equiv_pos_as_xyz
1 'x, y, z'
2 '-x, y+1/2, -z'

loop_
 _atom_site_type_symbol
 _atom_site_label
 _atom_site_symmetry_multiplicity
 _atom_site_fract_x
 _atom_site_fract_y
 _atom_site_fract_z
 _atom_site_occupancy
  Ni  Ni0  2  0.541148  0.033506  0.238642  1
  I  I1  2  0.316690  0.944187  0.806046  1
  I  I2  2  0.931049  0.522413  0.019516  1
  O  O3  2  0.792929  0.983230  0.380089  1
  O  O4  2  0.345413  0.427269  0.238346  1
  O  O5  2  0.589687  0.055392  0.338491  1
  O  O6  2  0.977134  0.713444  0.511786  1
  O  O7  2  0.808725  0.447173  0.639795  1
  O  O8  2  0.541038  0.276849  0.423262  1
