# generated using pymatgen
data_Ni(IO3)2
_symmetry_space_group_name_H-M 'P21'
_cell_length_a   5.48416635
_cell_length_b   5.26004470
_cell_length_c   9.37126090
_cell_angle_alpha   90.00000000
_cell_angle_beta   90.03451743
_cell_angle_gamma   90.00000000
_symmetry_Int_Tables_number                    4
_chemical_formula_structural   Ni(IO3)2
_chemical_formula_sum   'Ni2 I4 O12'
_cell_volume   270.33234062
_cell_formula_units_Z   2
loop_
 _symmetry_equiv_pos_site_id
 _symmetry_equiv_pos_as_xyz
1 'x, y, z'
2 '-x, y+1/2, -z'

loop_
 _atom_site_type_symbol
 _atom_site_label
 _atom_site_symmetry_multiplicity
 _atom_site_fract_x
 _atom_site_fract_y
 _atom_site_fract_z
 _atom_site_occupancy
  Ni  Ni0  2  0.442735  0.885397  0.116042  1
  I  I1  2  0.810998  0.554715  0.128835  1
  I  I2  2  0.571205  0.985038  0.263924  1
  O  O3  2  0.897682  0.534867  0.492122  1
  O  O4  2  0.322181  0.065038  0.086883  1
  O  O5  2  0.207155  0.475133  0.645344  1
  O  O6  2  0.123545  0.739342  0.484594  1
  O  O7  2  0.293857  0.535872  0.990954  1
  O  O8  2  0.319970  0.751715  0.761352  1
