# generated using pymatgen
data_Ni(IO3)2
_symmetry_space_group_name_H-M 'P21'
_cell_length_a   5.48416635
_cell_length_b   5.26004470
_cell_length_c   9.37126090
_cell_angle_alpha   90.00000000
_cell_angle_beta   90.03451743
_cell_angle_gamma   90.00000000
_symmetry_Int_Tables_number                    4
_chemical_formula_structural   Ni(IO3)2
_chemical_formula_sum   'Ni2 I4 O12'
_cell_volume   270.33234062
_cell_formula_units_Z   2
loop_
 _symmetry_equiv_pos_site_id
 _symmetry_equiv_pos_as_xyz
1 'x, y, z'
2 '-x, y+1/2, -z'

loop_
 _atom_site_type_symbol
 _atom_site_label
 _atom_site_symmetry_multiplicity
 _atom_site_fract_x
 _atom_site_fract_y
 _atom_site_fract_z
 _atom_site_occupancy
  Ni  Ni0  2  0.119238  0.218630  0.319520  1
  I  I1  2  0.709617  0.017000  0.738710  1
  I  I2  2  0.061985  0.589768  0.147744  1
  O  O3  2  0.911857  0.034870  0.028315  1
  O  O4  2  0.115457  0.734884  0.478978  1
  O  O5  2  0.682110  0.709317  0.367120  1
  O  O6  2  0.014087  0.908298  0.792517  1
  O  O7  2  0.749805  0.215661  0.713960  1
  O  O8  2  0.801364  0.039412  0.447799  1
