# generated using pymatgen
data_Ni(IO3)2
_symmetry_space_group_name_H-M 'P21'
_cell_length_a   5.48416635
_cell_length_b   5.26004470
_cell_length_c   9.37126090
_cell_angle_alpha   90.00000000
_cell_angle_beta   90.03451743
_cell_angle_gamma   90.00000000
_symmetry_Int_Tables_number                    4
_chemical_formula_structural   Ni(IO3)2
_chemical_formula_sum   'Ni2 I4 O12'
_cell_volume   270.33234062
_cell_formula_units_Z   2
loop_
 _symmetry_equiv_pos_site_id
 _symmetry_equiv_pos_as_xyz
1 'x, y, z'
2 '-x, y+1/2, -z'

loop_
 _atom_site_type_symbol
 _atom_site_label
 _atom_site_symmetry_multiplicity
 _atom_site_fract_x
 _atom_site_fract_y
 _atom_site_fract_z
 _atom_site_occupancy
  Ni  Ni0  2  0.172451  0.458464  0.775947  1
  I  I1  2  0.190334  0.105302  0.628478  1
  I  I2  2  0.374679  0.503773  0.585559  1
  O  O3  2  0.145314  0.465602  0.094937  1
  O  O4  2  0.130793  0.080911  0.245704  1
  O  O5  2  0.254674  0.360430  0.545517  1
  O  O6  2  0.401809  0.381511  0.781089  1
  O  O7  2  0.832762  0.380654  0.584793  1
  O  O8  2  0.946888  0.639101  0.829068  1
