# generated using pymatgen
data_Ni(IO3)2
_symmetry_space_group_name_H-M 'P21'
_cell_length_a   5.48416635
_cell_length_b   5.26004470
_cell_length_c   9.37126090
_cell_angle_alpha   90.00000000
_cell_angle_beta   90.03451743
_cell_angle_gamma   90.00000000
_symmetry_Int_Tables_number                    4
_chemical_formula_structural   Ni(IO3)2
_chemical_formula_sum   'Ni2 I4 O12'
_cell_volume   270.33234062
_cell_formula_units_Z   2
loop_
 _symmetry_equiv_pos_site_id
 _symmetry_equiv_pos_as_xyz
1 'x, y, z'
2 '-x, y+1/2, -z'

loop_
 _atom_site_type_symbol
 _atom_site_label
 _atom_site_symmetry_multiplicity
 _atom_site_fract_x
 _atom_site_fract_y
 _atom_site_fract_z
 _atom_site_occupancy
  Ni  Ni0  2  0.811879  0.344087  0.064787  1
  I  I1  2  0.253620  0.148256  0.490218  1
  I  I2  2  0.566707  0.466365  0.250783  1
  O  O3  2  0.654304  0.277907  0.916086  1
  O  O4  2  0.561304  0.139090  0.878826  1
  O  O5  2  0.156929  0.407925  0.149913  1
  O  O6  2  0.911967  0.523033  0.691281  1
  O  O7  2  0.153732  0.563607  0.969046  1
  O  O8  2  0.376531  0.513724  0.144834  1
