# generated using pymatgen
data_Ni(IO3)2
_symmetry_space_group_name_H-M 'P21'
_cell_length_a   5.48416635
_cell_length_b   5.26004470
_cell_length_c   9.37126090
_cell_angle_alpha   90.00000000
_cell_angle_beta   90.03451743
_cell_angle_gamma   90.00000000
_symmetry_Int_Tables_number                    4
_chemical_formula_structural   Ni(IO3)2
_chemical_formula_sum   'Ni2 I4 O12'
_cell_volume   270.33234062
_cell_formula_units_Z   2
loop_
 _symmetry_equiv_pos_site_id
 _symmetry_equiv_pos_as_xyz
1 'x, y, z'
2 '-x, y+1/2, -z'

loop_
 _atom_site_type_symbol
 _atom_site_label
 _atom_site_symmetry_multiplicity
 _atom_site_fract_x
 _atom_site_fract_y
 _atom_site_fract_z
 _atom_site_occupancy
  Ni  Ni0  2  0.222658  0.007976  0.420086  1
  I  I1  2  0.833787  0.157743  0.673411  1
  I  I2  2  0.562145  0.639553  0.240584  1
  O  O3  2  0.456939  0.322884  0.580445  1
  O  O4  2  0.695858  0.806798  0.032290  1
  O  O5  2  0.809813  0.925448  0.172239  1
  O  O6  2  0.149352  0.026813  0.683674  1
  O  O7  2  0.676852  0.437333  0.344447  1
  O  O8  2  0.021477  0.423356  0.695644  1
