# generated using pymatgen
data_Ni(IO3)2
_symmetry_space_group_name_H-M 'P21'
_cell_length_a   5.48416635
_cell_length_b   5.26004470
_cell_length_c   9.37126090
_cell_angle_alpha   90.00000000
_cell_angle_beta   90.03451743
_cell_angle_gamma   90.00000000
_symmetry_Int_Tables_number                    4
_chemical_formula_structural   Ni(IO3)2
_chemical_formula_sum   'Ni2 I4 O12'
_cell_volume   270.33234062
_cell_formula_units_Z   2
loop_
 _symmetry_equiv_pos_site_id
 _symmetry_equiv_pos_as_xyz
1 'x, y, z'
2 '-x, y+1/2, -z'

loop_
 _atom_site_type_symbol
 _atom_site_label
 _atom_site_symmetry_multiplicity
 _atom_site_fract_x
 _atom_site_fract_y
 _atom_site_fract_z
 _atom_site_occupancy
  Ni  Ni0  2  0.612818  0.312625  0.602143  1
  I  I1  2  0.355278  0.652994  0.598260  1
  I  I2  2  0.371107  0.628690  0.901264  1
  O  O3  2  0.568886  0.615646  0.771631  1
  O  O4  2  0.496774  0.080841  0.860938  1
  O  O5  2  0.035246  0.369713  0.503829  1
  O  O6  2  0.729308  0.543517  0.685421  1
  O  O7  2  0.751439  0.003483  0.904346  1
  O  O8  2  0.408373  0.446617  0.602568  1
