# generated using pymatgen
data_Ni(IO3)2
_symmetry_space_group_name_H-M 'P21'
_cell_length_a   5.48416635
_cell_length_b   5.26004470
_cell_length_c   9.37126090
_cell_angle_alpha   90.00000000
_cell_angle_beta   90.03451743
_cell_angle_gamma   90.00000000
_symmetry_Int_Tables_number                    4
_chemical_formula_structural   Ni(IO3)2
_chemical_formula_sum   'Ni2 I4 O12'
_cell_volume   270.33234062
_cell_formula_units_Z   2
loop_
 _symmetry_equiv_pos_site_id
 _symmetry_equiv_pos_as_xyz
1 'x, y, z'
2 '-x, y+1/2, -z'

loop_
 _atom_site_type_symbol
 _atom_site_label
 _atom_site_symmetry_multiplicity
 _atom_site_fract_x
 _atom_site_fract_y
 _atom_site_fract_z
 _atom_site_occupancy
  Ni  Ni0  2  0.015609  0.029051  0.762218  1
  I  I1  2  0.344537  0.648866  0.222571  1
  I  I2  2  0.193303  0.789360  0.763465  1
  O  O3  2  0.869957  0.858017  0.513807  1
  O  O4  2  0.784310  0.215202  0.436348  1
  O  O5  2  0.375314  0.608783  0.547819  1
  O  O6  2  0.295276  0.362320  0.305431  1
  O  O7  2  0.593717  0.661209  0.382975  1
  O  O8  2  0.928381  0.371833  0.720136  1
