# generated using pymatgen
data_Ni(IO3)2
_symmetry_space_group_name_H-M 'P21'
_cell_length_a   5.48416635
_cell_length_b   5.26004470
_cell_length_c   9.37126090
_cell_angle_alpha   90.00000000
_cell_angle_beta   90.03451743
_cell_angle_gamma   90.00000000
_symmetry_Int_Tables_number                    4
_chemical_formula_structural   Ni(IO3)2
_chemical_formula_sum   'Ni2 I4 O12'
_cell_volume   270.33234062
_cell_formula_units_Z   2
loop_
 _symmetry_equiv_pos_site_id
 _symmetry_equiv_pos_as_xyz
1 'x, y, z'
2 '-x, y+1/2, -z'

loop_
 _atom_site_type_symbol
 _atom_site_label
 _atom_site_symmetry_multiplicity
 _atom_site_fract_x
 _atom_site_fract_y
 _atom_site_fract_z
 _atom_site_occupancy
  Ni  Ni0  2  0.945946  0.461317  0.764264  1
  I  I1  2  0.446193  0.258338  0.785524  1
  I  I2  2  0.837121  0.890760  0.747204  1
  O  O3  2  0.533032  0.763516  0.023458  1
  O  O4  2  0.605385  0.032150  0.668752  1
  O  O5  2  0.469684  0.257137  0.527015  1
  O  O6  2  0.832377  0.561728  0.602452  1
  O  O7  2  0.867456  0.548353  0.919629  1
  O  O8  2  0.299982  0.665710  0.848165  1
