# generated using pymatgen
data_Ni(IO3)2
_symmetry_space_group_name_H-M 'P21'
_cell_length_a   5.48416635
_cell_length_b   5.26004470
_cell_length_c   9.37126090
_cell_angle_alpha   90.00000000
_cell_angle_beta   90.03451743
_cell_angle_gamma   90.00000000
_symmetry_Int_Tables_number                    4
_chemical_formula_structural   Ni(IO3)2
_chemical_formula_sum   'Ni2 I4 O12'
_cell_volume   270.33234062
_cell_formula_units_Z   2
loop_
 _symmetry_equiv_pos_site_id
 _symmetry_equiv_pos_as_xyz
1 'x, y, z'
2 '-x, y+1/2, -z'

loop_
 _atom_site_type_symbol
 _atom_site_label
 _atom_site_symmetry_multiplicity
 _atom_site_fract_x
 _atom_site_fract_y
 _atom_site_fract_z
 _atom_site_occupancy
  Ni  Ni0  2  0.459358  0.602007  0.863624  1
  I  I1  2  0.864756  0.744112  0.552492  1
  I  I2  2  0.194642  0.759649  0.449293  1
  O  O3  2  0.182355  0.525149  0.444750  1
  O  O4  2  0.820385  0.088256  0.220567  1
  O  O5  2  0.002589  0.447380  0.227669  1
  O  O6  2  0.272325  0.169825  0.992641  1
  O  O7  2  0.290005  0.735603  0.121625  1
  O  O8  2  0.018841  0.939243  0.004524  1
