# generated using pymatgen
data_Ni(IO3)2
_symmetry_space_group_name_H-M 'P21'
_cell_length_a   5.48416635
_cell_length_b   5.26004470
_cell_length_c   9.37126090
_cell_angle_alpha   90.00000000
_cell_angle_beta   90.03451743
_cell_angle_gamma   90.00000000
_symmetry_Int_Tables_number                    4
_chemical_formula_structural   Ni(IO3)2
_chemical_formula_sum   'Ni2 I4 O12'
_cell_volume   270.33234062
_cell_formula_units_Z   2
loop_
 _symmetry_equiv_pos_site_id
 _symmetry_equiv_pos_as_xyz
1 'x, y, z'
2 '-x, y+1/2, -z'

loop_
 _atom_site_type_symbol
 _atom_site_label
 _atom_site_symmetry_multiplicity
 _atom_site_fract_x
 _atom_site_fract_y
 _atom_site_fract_z
 _atom_site_occupancy
  Ni  Ni0  2  0.340017  0.170282  0.167823  1
  I  I1  2  0.238713  0.324282  0.568279  1
  I  I2  2  0.422129  0.734537  0.481159  1
  O  O3  2  0.457471  0.539091  0.079719  1
  O  O4  2  0.958951  0.683732  0.782368  1
  O  O5  2  0.967583  0.544240  0.402745  1
  O  O6  2  0.608037  0.319226  0.894920  1
  O  O7  2  0.842777  0.409933  0.149618  1
  O  O8  2  0.607808  0.850218  0.244423  1
