# generated using pymatgen
data_Ni(IO3)2
_symmetry_space_group_name_H-M 'P21'
_cell_length_a   5.48416635
_cell_length_b   5.26004470
_cell_length_c   9.37126090
_cell_angle_alpha   90.00000000
_cell_angle_beta   90.03451743
_cell_angle_gamma   90.00000000
_symmetry_Int_Tables_number                    4
_chemical_formula_structural   Ni(IO3)2
_chemical_formula_sum   'Ni2 I4 O12'
_cell_volume   270.33234062
_cell_formula_units_Z   2
loop_
 _symmetry_equiv_pos_site_id
 _symmetry_equiv_pos_as_xyz
1 'x, y, z'
2 '-x, y+1/2, -z'

loop_
 _atom_site_type_symbol
 _atom_site_label
 _atom_site_symmetry_multiplicity
 _atom_site_fract_x
 _atom_site_fract_y
 _atom_site_fract_z
 _atom_site_occupancy
  Ni  Ni0  2  0.705053  0.529952  0.211834  1
  I  I1  2  0.563073  0.314865  0.759170  1
  I  I2  2  0.778753  0.282570  0.058829  1
  O  O3  2  0.067287  0.290768  0.016647  1
  O  O4  2  0.471374  0.182489  0.206898  1
  O  O5  2  0.964545  0.035798  0.032194  1
  O  O6  2  0.230574  0.324805  0.458669  1
  O  O7  2  0.408450  0.523926  0.873447  1
  O  O8  2  0.108874  0.596308  0.889385  1
