# generated using pymatgen
data_Ni(IO3)2
_symmetry_space_group_name_H-M 'P21'
_cell_length_a   5.48416635
_cell_length_b   5.26004470
_cell_length_c   9.37126090
_cell_angle_alpha   90.00000000
_cell_angle_beta   90.03451743
_cell_angle_gamma   90.00000000
_symmetry_Int_Tables_number                    4
_chemical_formula_structural   Ni(IO3)2
_chemical_formula_sum   'Ni2 I4 O12'
_cell_volume   270.33234062
_cell_formula_units_Z   2
loop_
 _symmetry_equiv_pos_site_id
 _symmetry_equiv_pos_as_xyz
1 'x, y, z'
2 '-x, y+1/2, -z'

loop_
 _atom_site_type_symbol
 _atom_site_label
 _atom_site_symmetry_multiplicity
 _atom_site_fract_x
 _atom_site_fract_y
 _atom_site_fract_z
 _atom_site_occupancy
  Ni  Ni0  2  0.638302  0.309456  0.440584  1
  I  I1  2  0.248463  0.475538  0.476478  1
  I  I2  2  0.452026  0.976977  0.119028  1
  O  O3  2  0.440982  0.188866  0.341549  1
  O  O4  2  0.759534  0.426755  0.274841  1
  O  O5  2  0.153359  0.891382  0.863880  1
  O  O6  2  0.107598  0.552974  0.128383  1
  O  O7  2  0.493188  0.314812  0.026144  1
  O  O8  2  0.609280  0.693212  0.122213  1
