# generated using pymatgen
data_Ni(IO3)2
_symmetry_space_group_name_H-M 'P21'
_cell_length_a   5.48416635
_cell_length_b   5.26004470
_cell_length_c   9.37126090
_cell_angle_alpha   90.00000000
_cell_angle_beta   90.03451743
_cell_angle_gamma   90.00000000
_symmetry_Int_Tables_number                    4
_chemical_formula_structural   Ni(IO3)2
_chemical_formula_sum   'Ni2 I4 O12'
_cell_volume   270.33234062
_cell_formula_units_Z   2
loop_
 _symmetry_equiv_pos_site_id
 _symmetry_equiv_pos_as_xyz
1 'x, y, z'
2 '-x, y+1/2, -z'

loop_
 _atom_site_type_symbol
 _atom_site_label
 _atom_site_symmetry_multiplicity
 _atom_site_fract_x
 _atom_site_fract_y
 _atom_site_fract_z
 _atom_site_occupancy
  Ni  Ni0  2  0.889955  0.912903  0.128066  1
  I  I1  2  0.462201  0.411112  0.307221  1
  I  I2  2  0.688836  0.401190  0.711803  1
  O  O3  2  0.699224  0.615445  0.272115  1
  O  O4  2  0.824448  0.066128  0.247624  1
  O  O5  2  0.680952  0.299479  0.375498  1
  O  O6  2  0.137427  0.396016  0.495648  1
  O  O7  2  0.204299  0.285316  0.727074  1
  O  O8  2  0.499059  0.430194  0.558377  1
