# generated using pymatgen
data_Ni(IO3)2
_symmetry_space_group_name_H-M 'P21'
_cell_length_a   5.48416635
_cell_length_b   5.26004470
_cell_length_c   9.37126090
_cell_angle_alpha   90.00000000
_cell_angle_beta   90.03451743
_cell_angle_gamma   90.00000000
_symmetry_Int_Tables_number                    4
_chemical_formula_structural   Ni(IO3)2
_chemical_formula_sum   'Ni2 I4 O12'
_cell_volume   270.33234062
_cell_formula_units_Z   2
loop_
 _symmetry_equiv_pos_site_id
 _symmetry_equiv_pos_as_xyz
1 'x, y, z'
2 '-x, y+1/2, -z'

loop_
 _atom_site_type_symbol
 _atom_site_label
 _atom_site_symmetry_multiplicity
 _atom_site_fract_x
 _atom_site_fract_y
 _atom_site_fract_z
 _atom_site_occupancy
  Ni  Ni0  2  0.353697  0.790399  0.180693  1
  I  I1  2  0.021930  0.873047  0.159197  1
  I  I2  2  0.776927  0.950089  0.322566  1
  O  O3  2  0.196651  0.486141  0.347851  1
  O  O4  2  0.852279  0.379914  0.973890  1
  O  O5  2  0.345828  0.578211  0.876208  1
  O  O6  2  0.429267  0.941647  0.308276  1
  O  O7  2  0.274925  0.200329  0.795585  1
  O  O8  2  0.708499  0.840578  0.481649  1
