# generated using pymatgen
data_Ni(IO3)2
_symmetry_space_group_name_H-M 'P21'
_cell_length_a   5.48416635
_cell_length_b   5.26004470
_cell_length_c   9.37126090
_cell_angle_alpha   90.00000000
_cell_angle_beta   90.03451743
_cell_angle_gamma   90.00000000
_symmetry_Int_Tables_number                    4
_chemical_formula_structural   Ni(IO3)2
_chemical_formula_sum   'Ni2 I4 O12'
_cell_volume   270.33234062
_cell_formula_units_Z   2
loop_
 _symmetry_equiv_pos_site_id
 _symmetry_equiv_pos_as_xyz
1 'x, y, z'
2 '-x, y+1/2, -z'

loop_
 _atom_site_type_symbol
 _atom_site_label
 _atom_site_symmetry_multiplicity
 _atom_site_fract_x
 _atom_site_fract_y
 _atom_site_fract_z
 _atom_site_occupancy
  Ni  Ni0  2  0.147367  0.710535  0.214584  1
  I  I1  2  0.982556  0.859274  0.740646  1
  I  I2  2  0.318651  0.811311  0.123047  1
  O  O3  2  0.248856  0.064597  0.441521  1
  O  O4  2  0.552299  0.390579  0.773257  1
  O  O5  2  0.859970  0.237276  0.569091  1
  O  O6  2  0.922219  0.209450  0.017549  1
  O  O7  2  0.364039  0.867888  0.315103  1
  O  O8  2  0.107717  0.515830  0.532886  1
