# generated using pymatgen
data_Ni(IO3)2
_symmetry_space_group_name_H-M 'P21'
_cell_length_a   5.48416635
_cell_length_b   5.26004470
_cell_length_c   9.37126090
_cell_angle_alpha   90.00000000
_cell_angle_beta   90.03451743
_cell_angle_gamma   90.00000000
_symmetry_Int_Tables_number                    4
_chemical_formula_structural   Ni(IO3)2
_chemical_formula_sum   'Ni2 I4 O12'
_cell_volume   270.33234062
_cell_formula_units_Z   2
loop_
 _symmetry_equiv_pos_site_id
 _symmetry_equiv_pos_as_xyz
1 'x, y, z'
2 '-x, y+1/2, -z'

loop_
 _atom_site_type_symbol
 _atom_site_label
 _atom_site_symmetry_multiplicity
 _atom_site_fract_x
 _atom_site_fract_y
 _atom_site_fract_z
 _atom_site_occupancy
  Ni  Ni0  2  0.330860  0.407882  0.595028  1
  I  I1  2  0.021233  0.738016  0.120435  1
  I  I2  2  0.574825  0.251566  0.078718  1
  O  O3  2  0.423787  0.686931  0.613832  1
  O  O4  2  0.078077  0.164121  0.487847  1
  O  O5  2  0.945513  0.272594  0.497998  1
  O  O6  2  0.702736  0.960385  0.119138  1
  O  O7  2  0.722814  0.385782  0.871274  1
  O  O8  2  0.040515  0.682441  0.768939  1
