# generated using pymatgen
data_Ni(IO3)2
_symmetry_space_group_name_H-M 'P21'
_cell_length_a   5.48416635
_cell_length_b   5.26004470
_cell_length_c   9.37126090
_cell_angle_alpha   90.00000000
_cell_angle_beta   90.03451743
_cell_angle_gamma   90.00000000
_symmetry_Int_Tables_number                    4
_chemical_formula_structural   Ni(IO3)2
_chemical_formula_sum   'Ni2 I4 O12'
_cell_volume   270.33234062
_cell_formula_units_Z   2
loop_
 _symmetry_equiv_pos_site_id
 _symmetry_equiv_pos_as_xyz
1 'x, y, z'
2 '-x, y+1/2, -z'

loop_
 _atom_site_type_symbol
 _atom_site_label
 _atom_site_symmetry_multiplicity
 _atom_site_fract_x
 _atom_site_fract_y
 _atom_site_fract_z
 _atom_site_occupancy
  Ni  Ni0  2  0.451296  0.945282  0.377776  1
  I  I1  2  0.121442  0.541821  0.993938  1
  I  I2  2  0.375604  0.088147  0.218731  1
  O  O3  2  0.089130  0.088833  0.543952  1
  O  O4  2  0.691496  0.015619  0.856595  1
  O  O5  2  0.958179  0.477499  0.087610  1
  O  O6  2  0.069233  0.414442  0.166882  1
  O  O7  2  0.342524  0.438552  0.727145  1
  O  O8  2  0.219860  0.004537  0.072835  1
