# generated using pymatgen
data_Ni(IO3)2
_symmetry_space_group_name_H-M 'P21'
_cell_length_a   5.48416635
_cell_length_b   5.26004470
_cell_length_c   9.37126090
_cell_angle_alpha   90.00000000
_cell_angle_beta   90.03451743
_cell_angle_gamma   90.00000000
_symmetry_Int_Tables_number                    4
_chemical_formula_structural   Ni(IO3)2
_chemical_formula_sum   'Ni2 I4 O12'
_cell_volume   270.33234062
_cell_formula_units_Z   2
loop_
 _symmetry_equiv_pos_site_id
 _symmetry_equiv_pos_as_xyz
1 'x, y, z'
2 '-x, y+1/2, -z'

loop_
 _atom_site_type_symbol
 _atom_site_label
 _atom_site_symmetry_multiplicity
 _atom_site_fract_x
 _atom_site_fract_y
 _atom_site_fract_z
 _atom_site_occupancy
  Ni  Ni0  2  0.847648  0.855627  0.469192  1
  I  I1  2  0.466042  0.479226  0.708739  1
  I  I2  2  0.512957  0.278921  0.207173  1
  O  O3  2  0.096195  0.193128  0.860957  1
  O  O4  2  0.984523  0.448555  0.732121  1
  O  O5  2  0.465616  0.230898  0.727107  1
  O  O6  2  0.134522  0.844817  0.441133  1
  O  O7  2  0.004569  0.734752  0.319911  1
  O  O8  2  0.144365  0.347524  0.138924  1
