# generated using pymatgen
data_Ni(IO3)2
_symmetry_space_group_name_H-M 'P21'
_cell_length_a   5.48416635
_cell_length_b   5.26004470
_cell_length_c   9.37126090
_cell_angle_alpha   90.00000000
_cell_angle_beta   90.03451743
_cell_angle_gamma   90.00000000
_symmetry_Int_Tables_number                    4
_chemical_formula_structural   Ni(IO3)2
_chemical_formula_sum   'Ni2 I4 O12'
_cell_volume   270.33234062
_cell_formula_units_Z   2
loop_
 _symmetry_equiv_pos_site_id
 _symmetry_equiv_pos_as_xyz
1 'x, y, z'
2 '-x, y+1/2, -z'

loop_
 _atom_site_type_symbol
 _atom_site_label
 _atom_site_symmetry_multiplicity
 _atom_site_fract_x
 _atom_site_fract_y
 _atom_site_fract_z
 _atom_site_occupancy
  Ni  Ni0  2  0.374668  0.619189  0.194885  1
  I  I1  2  0.981982  0.258578  0.617864  1
  I  I2  2  0.070412  0.591431  0.200592  1
  O  O3  2  0.988113  0.976966  0.571765  1
  O  O4  2  0.710206  0.356198  0.636559  1
  O  O5  2  0.635140  0.460576  0.053882  1
  O  O6  2  0.607820  0.083277  0.930797  1
  O  O7  2  0.485316  0.922298  0.827872  1
  O  O8  2  0.521286  0.883537  0.414390  1
