# generated using pymatgen
data_Ni(IO3)2
_symmetry_space_group_name_H-M 'P21'
_cell_length_a   5.48416635
_cell_length_b   5.26004470
_cell_length_c   9.37126090
_cell_angle_alpha   90.00000000
_cell_angle_beta   90.03451743
_cell_angle_gamma   90.00000000
_symmetry_Int_Tables_number                    4
_chemical_formula_structural   Ni(IO3)2
_chemical_formula_sum   'Ni2 I4 O12'
_cell_volume   270.33234062
_cell_formula_units_Z   2
loop_
 _symmetry_equiv_pos_site_id
 _symmetry_equiv_pos_as_xyz
1 'x, y, z'
2 '-x, y+1/2, -z'

loop_
 _atom_site_type_symbol
 _atom_site_label
 _atom_site_symmetry_multiplicity
 _atom_site_fract_x
 _atom_site_fract_y
 _atom_site_fract_z
 _atom_site_occupancy
  Ni  Ni0  2  0.614359  0.512870  0.604495  1
  I  I1  2  0.062497  0.651606  0.302812  1
  I  I2  2  0.022618  0.234112  0.375985  1
  O  O3  2  0.510992  0.901100  0.459966  1
  O  O4  2  0.435830  0.514680  0.797860  1
  O  O5  2  0.743827  0.246096  0.481112  1
  O  O6  2  0.393074  0.069199  0.855417  1
  O  O7  2  0.810035  0.271272  0.800850  1
  O  O8  2  0.534872  0.160556  0.305608  1
