# generated using pymatgen
data_Ni(IO3)2
_symmetry_space_group_name_H-M 'P21'
_cell_length_a   5.48416635
_cell_length_b   5.26004470
_cell_length_c   9.37126090
_cell_angle_alpha   90.00000000
_cell_angle_beta   90.03451743
_cell_angle_gamma   90.00000000
_symmetry_Int_Tables_number                    4
_chemical_formula_structural   Ni(IO3)2
_chemical_formula_sum   'Ni2 I4 O12'
_cell_volume   270.33234062
_cell_formula_units_Z   2
loop_
 _symmetry_equiv_pos_site_id
 _symmetry_equiv_pos_as_xyz
1 'x, y, z'
2 '-x, y+1/2, -z'

loop_
 _atom_site_type_symbol
 _atom_site_label
 _atom_site_symmetry_multiplicity
 _atom_site_fract_x
 _atom_site_fract_y
 _atom_site_fract_z
 _atom_site_occupancy
  Ni  Ni0  2  0.590122  0.861151  0.921410  1
  I  I1  2  0.214734  0.801027  0.465559  1
  I  I2  2  0.400074  0.482118  0.687573  1
  O  O3  2  0.749692  0.332717  0.943962  1
  O  O4  2  0.546557  0.004809  0.590453  1
  O  O5  2  0.862756  0.045566  0.464527  1
  O  O6  2  0.034158  0.016660  0.989159  1
  O  O7  2  0.993576  0.836499  0.660653  1
  O  O8  2  0.225240  0.033686  0.171988  1
