# generated using pymatgen
data_Ni(IO3)2
_symmetry_space_group_name_H-M 'P21'
_cell_length_a   5.48416635
_cell_length_b   5.26004470
_cell_length_c   9.37126090
_cell_angle_alpha   90.00000000
_cell_angle_beta   90.03451743
_cell_angle_gamma   90.00000000
_symmetry_Int_Tables_number                    4
_chemical_formula_structural   Ni(IO3)2
_chemical_formula_sum   'Ni2 I4 O12'
_cell_volume   270.33234062
_cell_formula_units_Z   2
loop_
 _symmetry_equiv_pos_site_id
 _symmetry_equiv_pos_as_xyz
1 'x, y, z'
2 '-x, y+1/2, -z'

loop_
 _atom_site_type_symbol
 _atom_site_label
 _atom_site_symmetry_multiplicity
 _atom_site_fract_x
 _atom_site_fract_y
 _atom_site_fract_z
 _atom_site_occupancy
  Ni  Ni0  2  0.257250  0.295038  0.033243  1
  I  I1  2  0.989058  0.397815  0.131836  1
  I  I2  2  0.355634  0.551549  0.096873  1
  O  O3  2  0.507851  0.038648  0.109522  1
  O  O4  2  0.283118  0.887083  0.311109  1
  O  O5  2  0.772821  0.407963  0.329166  1
  O  O6  2  0.328663  0.689501  0.838174  1
  O  O7  2  0.970569  0.905179  0.986850  1
  O  O8  2  0.731120  0.553149  0.948725  1
