# generated using pymatgen
data_Ni(IO3)2
_symmetry_space_group_name_H-M 'P21'
_cell_length_a   5.48416635
_cell_length_b   5.26004470
_cell_length_c   9.37126090
_cell_angle_alpha   90.00000000
_cell_angle_beta   90.03451743
_cell_angle_gamma   90.00000000
_symmetry_Int_Tables_number                    4
_chemical_formula_structural   Ni(IO3)2
_chemical_formula_sum   'Ni2 I4 O12'
_cell_volume   270.33234062
_cell_formula_units_Z   2
loop_
 _symmetry_equiv_pos_site_id
 _symmetry_equiv_pos_as_xyz
1 'x, y, z'
2 '-x, y+1/2, -z'

loop_
 _atom_site_type_symbol
 _atom_site_label
 _atom_site_symmetry_multiplicity
 _atom_site_fract_x
 _atom_site_fract_y
 _atom_site_fract_z
 _atom_site_occupancy
  Ni  Ni0  2  0.508972  0.836771  0.027493  1
  I  I1  2  0.224829  0.140149  0.099121  1
  I  I2  2  0.507639  0.532696  0.565176  1
  O  O3  2  0.443047  0.232930  0.254001  1
  O  O4  2  0.059061  0.420800  0.874099  1
  O  O5  2  0.883346  0.905985  0.744576  1
  O  O6  2  0.466110  0.479596  0.802621  1
  O  O7  2  0.702478  0.155566  0.624412  1
  O  O8  2  0.910516  0.109199  0.755995  1
