# generated using pymatgen
data_Ni(IO3)2
_symmetry_space_group_name_H-M 'P21'
_cell_length_a   5.48416635
_cell_length_b   5.26004470
_cell_length_c   9.37126090
_cell_angle_alpha   90.00000000
_cell_angle_beta   90.03451743
_cell_angle_gamma   90.00000000
_symmetry_Int_Tables_number                    4
_chemical_formula_structural   Ni(IO3)2
_chemical_formula_sum   'Ni2 I4 O12'
_cell_volume   270.33234062
_cell_formula_units_Z   2
loop_
 _symmetry_equiv_pos_site_id
 _symmetry_equiv_pos_as_xyz
1 'x, y, z'
2 '-x, y+1/2, -z'

loop_
 _atom_site_type_symbol
 _atom_site_label
 _atom_site_symmetry_multiplicity
 _atom_site_fract_x
 _atom_site_fract_y
 _atom_site_fract_z
 _atom_site_occupancy
  Ni  Ni0  2  0.004669  0.000669  0.780703  1
  I  I1  2  0.426642  0.643605  0.120592  1
  I  I2  2  0.051553  0.355221  0.680381  1
  O  O3  2  0.929387  0.771159  0.634129  1
  O  O4  2  0.257469  0.054591  0.580228  1
  O  O5  2  0.762822  0.523720  0.923675  1
  O  O6  2  0.380581  0.497910  0.768569  1
  O  O7  2  0.226360  0.035247  0.767250  1
  O  O8  2  0.052521  0.276068  0.254550  1
