# generated using pymatgen
data_Ni(IO3)2
_symmetry_space_group_name_H-M 'P21'
_cell_length_a   5.48416635
_cell_length_b   5.26004470
_cell_length_c   9.37126090
_cell_angle_alpha   90.00000000
_cell_angle_beta   90.03451743
_cell_angle_gamma   90.00000000
_symmetry_Int_Tables_number                    4
_chemical_formula_structural   Ni(IO3)2
_chemical_formula_sum   'Ni2 I4 O12'
_cell_volume   270.33234062
_cell_formula_units_Z   2
loop_
 _symmetry_equiv_pos_site_id
 _symmetry_equiv_pos_as_xyz
1 'x, y, z'
2 '-x, y+1/2, -z'

loop_
 _atom_site_type_symbol
 _atom_site_label
 _atom_site_symmetry_multiplicity
 _atom_site_fract_x
 _atom_site_fract_y
 _atom_site_fract_z
 _atom_site_occupancy
  Ni  Ni0  2  0.704708  0.415895  0.541384  1
  I  I1  2  0.737345  0.807428  0.135452  1
  I  I2  2  0.994486  0.921588  0.221400  1
  O  O3  2  0.338685  0.959174  0.873325  1
  O  O4  2  0.463806  0.042278  0.207402  1
  O  O5  2  0.627473  0.707471  0.299461  1
  O  O6  2  0.276841  0.568597  0.900424  1
  O  O7  2  0.482948  0.987079  0.379761  1
  O  O8  2  0.873112  0.652445  0.212483  1
