# generated using pymatgen
data_Ni(IO3)2
_symmetry_space_group_name_H-M 'P21'
_cell_length_a   5.48416635
_cell_length_b   5.26004470
_cell_length_c   9.37126090
_cell_angle_alpha   90.00000000
_cell_angle_beta   90.03451743
_cell_angle_gamma   90.00000000
_symmetry_Int_Tables_number                    4
_chemical_formula_structural   Ni(IO3)2
_chemical_formula_sum   'Ni2 I4 O12'
_cell_volume   270.33234062
_cell_formula_units_Z   2
loop_
 _symmetry_equiv_pos_site_id
 _symmetry_equiv_pos_as_xyz
1 'x, y, z'
2 '-x, y+1/2, -z'

loop_
 _atom_site_type_symbol
 _atom_site_label
 _atom_site_symmetry_multiplicity
 _atom_site_fract_x
 _atom_site_fract_y
 _atom_site_fract_z
 _atom_site_occupancy
  Ni  Ni0  2  0.426021  0.408439  0.688707  1
  I  I1  2  0.358120  0.599916  0.269733  1
  I  I2  2  0.104718  0.668657  0.670690  1
  O  O3  2  0.210352  0.979775  0.823485  1
  O  O4  2  0.247993  0.831555  0.908435  1
  O  O5  2  0.533053  0.461344  0.878137  1
  O  O6  2  0.655494  0.744838  0.930446  1
  O  O7  2  0.039551  0.001179  0.975244  1
  O  O8  2  0.127648  0.415698  0.892129  1
