# generated using pymatgen
data_Ni(IO3)2
_symmetry_space_group_name_H-M 'P21'
_cell_length_a   5.48416635
_cell_length_b   5.26004470
_cell_length_c   9.37126090
_cell_angle_alpha   90.00000000
_cell_angle_beta   90.03451743
_cell_angle_gamma   90.00000000
_symmetry_Int_Tables_number                    4
_chemical_formula_structural   Ni(IO3)2
_chemical_formula_sum   'Ni2 I4 O12'
_cell_volume   270.33234062
_cell_formula_units_Z   2
loop_
 _symmetry_equiv_pos_site_id
 _symmetry_equiv_pos_as_xyz
1 'x, y, z'
2 '-x, y+1/2, -z'

loop_
 _atom_site_type_symbol
 _atom_site_label
 _atom_site_symmetry_multiplicity
 _atom_site_fract_x
 _atom_site_fract_y
 _atom_site_fract_z
 _atom_site_occupancy
  Ni  Ni0  2  0.958948  0.578530  0.312603  1
  I  I1  2  0.098690  0.725139  0.115096  1
  I  I2  2  0.905065  0.621284  0.833877  1
  O  O3  2  0.913822  0.621282  0.033416  1
  O  O4  2  0.634542  0.580147  0.411869  1
  O  O5  2  0.259602  0.109595  0.701089  1
  O  O6  2  0.407611  0.564125  0.573381  1
  O  O7  2  0.073527  0.499433  0.121882  1
  O  O8  2  0.928463  0.775009  0.295498  1
