# generated using pymatgen
data_Ni(IO3)2
_symmetry_space_group_name_H-M 'P21'
_cell_length_a   5.48416635
_cell_length_b   5.26004470
_cell_length_c   9.37126090
_cell_angle_alpha   90.00000000
_cell_angle_beta   90.03451743
_cell_angle_gamma   90.00000000
_symmetry_Int_Tables_number                    4
_chemical_formula_structural   Ni(IO3)2
_chemical_formula_sum   'Ni2 I4 O12'
_cell_volume   270.33234062
_cell_formula_units_Z   2
loop_
 _symmetry_equiv_pos_site_id
 _symmetry_equiv_pos_as_xyz
1 'x, y, z'
2 '-x, y+1/2, -z'

loop_
 _atom_site_type_symbol
 _atom_site_label
 _atom_site_symmetry_multiplicity
 _atom_site_fract_x
 _atom_site_fract_y
 _atom_site_fract_z
 _atom_site_occupancy
  Ni  Ni0  2  0.608419  0.461546  0.788627  1
  I  I1  2  0.992264  0.973833  0.271782  1
  I  I2  2  0.413858  0.376678  0.186051  1
  O  O3  2  0.836981  0.028782  0.356286  1
  O  O4  2  0.640312  0.396149  0.958939  1
  O  O5  2  0.471962  0.593600  0.261436  1
  O  O6  2  0.852806  0.391178  0.791332  1
  O  O7  2  0.452816  0.621704  0.936598  1
  O  O8  2  0.781092  0.715186  0.952329  1
