# generated using pymatgen
data_Ni(IO3)2
_symmetry_space_group_name_H-M 'P21'
_cell_length_a   5.48416635
_cell_length_b   5.26004470
_cell_length_c   9.37126090
_cell_angle_alpha   90.00000000
_cell_angle_beta   90.03451743
_cell_angle_gamma   90.00000000
_symmetry_Int_Tables_number                    4
_chemical_formula_structural   Ni(IO3)2
_chemical_formula_sum   'Ni2 I4 O12'
_cell_volume   270.33234062
_cell_formula_units_Z   2
loop_
 _symmetry_equiv_pos_site_id
 _symmetry_equiv_pos_as_xyz
1 'x, y, z'
2 '-x, y+1/2, -z'

loop_
 _atom_site_type_symbol
 _atom_site_label
 _atom_site_symmetry_multiplicity
 _atom_site_fract_x
 _atom_site_fract_y
 _atom_site_fract_z
 _atom_site_occupancy
  Ni  Ni0  2  0.189339  0.551840  0.563245  1
  I  I1  2  0.658830  0.282762  0.294469  1
  I  I2  2  0.303623  0.479341  0.864964  1
  O  O3  2  0.643173  0.397679  0.121690  1
  O  O4  2  0.204022  0.666889  0.180089  1
  O  O5  2  0.154775  0.467441  0.720386  1
  O  O6  2  0.607003  0.139622  0.176434  1
  O  O7  2  0.511405  0.490871  0.333220  1
  O  O8  2  0.607320  0.849039  0.476246  1
