# generated using pymatgen
data_Ni(IO3)2
_symmetry_space_group_name_H-M 'P21'
_cell_length_a   5.48416635
_cell_length_b   5.26004470
_cell_length_c   9.37126090
_cell_angle_alpha   90.00000000
_cell_angle_beta   90.03451743
_cell_angle_gamma   90.00000000
_symmetry_Int_Tables_number                    4
_chemical_formula_structural   Ni(IO3)2
_chemical_formula_sum   'Ni2 I4 O12'
_cell_volume   270.33234062
_cell_formula_units_Z   2
loop_
 _symmetry_equiv_pos_site_id
 _symmetry_equiv_pos_as_xyz
1 'x, y, z'
2 '-x, y+1/2, -z'

loop_
 _atom_site_type_symbol
 _atom_site_label
 _atom_site_symmetry_multiplicity
 _atom_site_fract_x
 _atom_site_fract_y
 _atom_site_fract_z
 _atom_site_occupancy
  Ni  Ni0  2  0.989754  0.701027  0.052883  1
  I  I1  2  0.615678  0.007646  0.687789  1
  I  I2  2  0.450219  0.972918  0.831438  1
  O  O3  2  0.567456  0.304384  0.853752  1
  O  O4  2  0.272814  0.879996  0.647330  1
  O  O5  2  0.619667  0.493947  0.622071  1
  O  O6  2  0.801745  0.807961  0.987453  1
  O  O7  2  0.037467  0.306882  0.767301  1
  O  O8  2  0.250028  0.731255  0.935665  1
