# generated using pymatgen
data_Ni(IO3)2
_symmetry_space_group_name_H-M 'P21'
_cell_length_a   5.48416635
_cell_length_b   5.26004470
_cell_length_c   9.37126090
_cell_angle_alpha   90.00000000
_cell_angle_beta   90.03451743
_cell_angle_gamma   90.00000000
_symmetry_Int_Tables_number                    4
_chemical_formula_structural   Ni(IO3)2
_chemical_formula_sum   'Ni2 I4 O12'
_cell_volume   270.33234062
_cell_formula_units_Z   2
loop_
 _symmetry_equiv_pos_site_id
 _symmetry_equiv_pos_as_xyz
1 'x, y, z'
2 '-x, y+1/2, -z'

loop_
 _atom_site_type_symbol
 _atom_site_label
 _atom_site_symmetry_multiplicity
 _atom_site_fract_x
 _atom_site_fract_y
 _atom_site_fract_z
 _atom_site_occupancy
  Ni  Ni0  2  0.675225  0.420786  0.521304  1
  I  I1  2  0.359453  0.535027  0.813252  1
  I  I2  2  0.947986  0.456210  0.530395  1
  O  O3  2  0.990689  0.901826  0.693051  1
  O  O4  2  0.292289  0.827090  0.984267  1
  O  O5  2  0.993729  0.423169  0.232668  1
  O  O6  2  0.294391  0.421195  0.450501  1
  O  O7  2  0.803670  0.965993  0.508442  1
  O  O8  2  0.674792  0.236389  0.810838  1
