# generated using pymatgen
data_Ni(IO3)2
_symmetry_space_group_name_H-M 'P21'
_cell_length_a   5.48416635
_cell_length_b   5.26004470
_cell_length_c   9.37126090
_cell_angle_alpha   90.00000000
_cell_angle_beta   90.03451743
_cell_angle_gamma   90.00000000
_symmetry_Int_Tables_number                    4
_chemical_formula_structural   Ni(IO3)2
_chemical_formula_sum   'Ni2 I4 O12'
_cell_volume   270.33234062
_cell_formula_units_Z   2
loop_
 _symmetry_equiv_pos_site_id
 _symmetry_equiv_pos_as_xyz
1 'x, y, z'
2 '-x, y+1/2, -z'

loop_
 _atom_site_type_symbol
 _atom_site_label
 _atom_site_symmetry_multiplicity
 _atom_site_fract_x
 _atom_site_fract_y
 _atom_site_fract_z
 _atom_site_occupancy
  Ni  Ni0  2  0.799082  0.253607  0.470473  1
  I  I1  2  0.968255  0.080005  0.298487  1
  I  I2  2  0.532720  0.772850  0.646453  1
  O  O3  2  0.130927  0.971619  0.579977  1
  O  O4  2  0.943061  0.973161  0.788666  1
  O  O5  2  0.483656  0.847068  0.846664  1
  O  O6  2  0.992278  0.525228  0.811738  1
  O  O7  2  0.731044  0.894883  0.186874  1
  O  O8  2  0.099856  0.487682  0.566311  1
