# generated using pymatgen
data_Ni(IO3)2
_symmetry_space_group_name_H-M 'P21'
_cell_length_a   5.48416635
_cell_length_b   5.26004470
_cell_length_c   9.37126090
_cell_angle_alpha   90.00000000
_cell_angle_beta   90.03451743
_cell_angle_gamma   90.00000000
_symmetry_Int_Tables_number                    4
_chemical_formula_structural   Ni(IO3)2
_chemical_formula_sum   'Ni2 I4 O12'
_cell_volume   270.33234062
_cell_formula_units_Z   2
loop_
 _symmetry_equiv_pos_site_id
 _symmetry_equiv_pos_as_xyz
1 'x, y, z'
2 '-x, y+1/2, -z'

loop_
 _atom_site_type_symbol
 _atom_site_label
 _atom_site_symmetry_multiplicity
 _atom_site_fract_x
 _atom_site_fract_y
 _atom_site_fract_z
 _atom_site_occupancy
  Ni  Ni0  2  0.044956  0.752093  0.494171  1
  I  I1  2  0.494818  0.098656  0.350329  1
  I  I2  2  0.513695  0.634296  0.200042  1
  O  O3  2  0.259837  0.570627  0.945867  1
  O  O4  2  0.325152  0.372193  0.540463  1
  O  O5  2  0.498517  0.841449  0.979623  1
  O  O6  2  0.769372  0.071086  0.873759  1
  O  O7  2  0.326820  0.249773  0.381011  1
  O  O8  2  0.952046  0.100005  0.624275  1
