# generated using pymatgen
data_Ni(IO3)2
_symmetry_space_group_name_H-M 'P21'
_cell_length_a   5.48416635
_cell_length_b   5.26004470
_cell_length_c   9.37126090
_cell_angle_alpha   90.00000000
_cell_angle_beta   90.03451743
_cell_angle_gamma   90.00000000
_symmetry_Int_Tables_number                    4
_chemical_formula_structural   Ni(IO3)2
_chemical_formula_sum   'Ni2 I4 O12'
_cell_volume   270.33234062
_cell_formula_units_Z   2
loop_
 _symmetry_equiv_pos_site_id
 _symmetry_equiv_pos_as_xyz
1 'x, y, z'
2 '-x, y+1/2, -z'

loop_
 _atom_site_type_symbol
 _atom_site_label
 _atom_site_symmetry_multiplicity
 _atom_site_fract_x
 _atom_site_fract_y
 _atom_site_fract_z
 _atom_site_occupancy
  Ni  Ni0  2  0.536663  0.704805  0.445624  1
  I  I1  2  0.048859  0.182723  0.220776  1
  I  I2  2  0.749378  0.293448  0.172226  1
  O  O3  2  0.470498  0.786191  0.358226  1
  O  O4  2  0.589089  0.664289  0.208401  1
  O  O5  2  0.517349  0.371899  0.767929  1
  O  O6  2  0.792210  0.614810  0.586153  1
  O  O7  2  0.365952  0.460456  0.804563  1
  O  O8  2  0.953728  0.362067  0.512986  1
