# generated using pymatgen
data_Ni(IO3)2
_symmetry_space_group_name_H-M 'P21'
_cell_length_a   5.48416635
_cell_length_b   5.26004470
_cell_length_c   9.37126090
_cell_angle_alpha   90.00000000
_cell_angle_beta   90.03451743
_cell_angle_gamma   90.00000000
_symmetry_Int_Tables_number                    4
_chemical_formula_structural   Ni(IO3)2
_chemical_formula_sum   'Ni2 I4 O12'
_cell_volume   270.33234062
_cell_formula_units_Z   2
loop_
 _symmetry_equiv_pos_site_id
 _symmetry_equiv_pos_as_xyz
1 'x, y, z'
2 '-x, y+1/2, -z'

loop_
 _atom_site_type_symbol
 _atom_site_label
 _atom_site_symmetry_multiplicity
 _atom_site_fract_x
 _atom_site_fract_y
 _atom_site_fract_z
 _atom_site_occupancy
  Ni  Ni0  2  0.743634  0.747673  0.301450  1
  I  I1  2  0.366339  0.893590  0.983133  1
  I  I2  2  0.941001  0.397679  0.014869  1
  O  O3  2  0.946932  0.514744  0.335233  1
  O  O4  2  0.191681  0.230527  0.060002  1
  O  O5  2  0.461823  0.785380  0.467570  1
  O  O6  2  0.894548  0.140683  0.622976  1
  O  O7  2  0.164166  0.444425  0.791508  1
  O  O8  2  0.869614  0.542120  0.520870  1
