# generated using pymatgen
data_Ni(IO3)2
_symmetry_space_group_name_H-M 'P21'
_cell_length_a   5.48416635
_cell_length_b   5.26004470
_cell_length_c   9.37126090
_cell_angle_alpha   90.00000000
_cell_angle_beta   90.03451743
_cell_angle_gamma   90.00000000
_symmetry_Int_Tables_number                    4
_chemical_formula_structural   Ni(IO3)2
_chemical_formula_sum   'Ni2 I4 O12'
_cell_volume   270.33234062
_cell_formula_units_Z   2
loop_
 _symmetry_equiv_pos_site_id
 _symmetry_equiv_pos_as_xyz
1 'x, y, z'
2 '-x, y+1/2, -z'

loop_
 _atom_site_type_symbol
 _atom_site_label
 _atom_site_symmetry_multiplicity
 _atom_site_fract_x
 _atom_site_fract_y
 _atom_site_fract_z
 _atom_site_occupancy
  Ni  Ni0  2  0.545905  0.061097  0.843463  1
  I  I1  2  0.169454  0.881345  0.431169  1
  I  I2  2  0.844640  0.465439  0.029739  1
  O  O3  2  0.018040  0.049662  0.175722  1
  O  O4  2  0.333350  0.068820  0.597106  1
  O  O5  2  0.422527  0.929581  0.397917  1
  O  O6  2  0.003706  0.408828  0.408223  1
  O  O7  2  0.339656  0.805279  0.070109  1
  O  O8  2  0.021847  0.791029  0.890261  1
