# generated using pymatgen
data_Ni(IO3)2
_symmetry_space_group_name_H-M 'P21'
_cell_length_a   5.48416635
_cell_length_b   5.26004470
_cell_length_c   9.37126090
_cell_angle_alpha   90.00000000
_cell_angle_beta   90.03451743
_cell_angle_gamma   90.00000000
_symmetry_Int_Tables_number                    4
_chemical_formula_structural   Ni(IO3)2
_chemical_formula_sum   'Ni2 I4 O12'
_cell_volume   270.33234062
_cell_formula_units_Z   2
loop_
 _symmetry_equiv_pos_site_id
 _symmetry_equiv_pos_as_xyz
1 'x, y, z'
2 '-x, y+1/2, -z'

loop_
 _atom_site_type_symbol
 _atom_site_label
 _atom_site_symmetry_multiplicity
 _atom_site_fract_x
 _atom_site_fract_y
 _atom_site_fract_z
 _atom_site_occupancy
  Ni  Ni0  2  0.174837  0.423852  0.198723  1
  I  I1  2  0.978985  0.612498  0.383408  1
  I  I2  2  0.777558  0.801365  0.083935  1
  O  O3  2  0.684633  0.087236  0.436868  1
  O  O4  2  0.607067  0.834016  0.818957  1
  O  O5  2  0.719728  0.459148  0.926454  1
  O  O6  2  0.120596  0.625638  0.222969  1
  O  O7  2  0.246380  0.261135  0.630890  1
  O  O8  2  0.977037  0.989479  0.129962  1
