# generated using pymatgen
data_Ni(IO3)2
_symmetry_space_group_name_H-M 'P21'
_cell_length_a   5.48416635
_cell_length_b   5.26004470
_cell_length_c   9.37126090
_cell_angle_alpha   90.00000000
_cell_angle_beta   90.03451743
_cell_angle_gamma   90.00000000
_symmetry_Int_Tables_number                    4
_chemical_formula_structural   Ni(IO3)2
_chemical_formula_sum   'Ni2 I4 O12'
_cell_volume   270.33234062
_cell_formula_units_Z   2
loop_
 _symmetry_equiv_pos_site_id
 _symmetry_equiv_pos_as_xyz
1 'x, y, z'
2 '-x, y+1/2, -z'

loop_
 _atom_site_type_symbol
 _atom_site_label
 _atom_site_symmetry_multiplicity
 _atom_site_fract_x
 _atom_site_fract_y
 _atom_site_fract_z
 _atom_site_occupancy
  Ni  Ni0  2  0.443624  0.284804  0.427965  1
  I  I1  2  0.284158  0.946211  0.652209  1
  I  I2  2  0.892561  0.337696  0.906730  1
  O  O3  2  0.120721  0.237043  0.355510  1
  O  O4  2  0.710037  0.208539  0.660337  1
  O  O5  2  0.313107  0.658314  0.624291  1
  O  O6  2  0.840487  0.714036  0.534900  1
  O  O7  2  0.622273  0.809276  0.054836  1
  O  O8  2  0.923428  0.372938  0.402283  1
