# generated using pymatgen
data_Ni(IO3)2
_symmetry_space_group_name_H-M 'P21'
_cell_length_a   5.48416635
_cell_length_b   5.26004470
_cell_length_c   9.37126090
_cell_angle_alpha   90.00000000
_cell_angle_beta   90.03451743
_cell_angle_gamma   90.00000000
_symmetry_Int_Tables_number                    4
_chemical_formula_structural   Ni(IO3)2
_chemical_formula_sum   'Ni2 I4 O12'
_cell_volume   270.33234062
_cell_formula_units_Z   2
loop_
 _symmetry_equiv_pos_site_id
 _symmetry_equiv_pos_as_xyz
1 'x, y, z'
2 '-x, y+1/2, -z'

loop_
 _atom_site_type_symbol
 _atom_site_label
 _atom_site_symmetry_multiplicity
 _atom_site_fract_x
 _atom_site_fract_y
 _atom_site_fract_z
 _atom_site_occupancy
  Ni  Ni0  2  0.364826  0.031994  0.848063  1
  I  I1  2  0.060903  0.000493  0.520817  1
  I  I2  2  0.518082  0.070561  0.718730  1
  O  O3  2  0.909932  0.137516  0.801639  1
  O  O4  2  0.968335  0.742635  0.198690  1
  O  O5  2  0.338313  0.849361  0.838625  1
  O  O6  2  0.153848  0.834972  0.761539  1
  O  O7  2  0.805796  0.028563  0.481438  1
  O  O8  2  0.376488  0.074843  0.365499  1
