# generated using pymatgen
data_Ni(IO3)2
_symmetry_space_group_name_H-M 'P21'
_cell_length_a   5.48416635
_cell_length_b   5.26004470
_cell_length_c   9.37126090
_cell_angle_alpha   90.00000000
_cell_angle_beta   90.03451743
_cell_angle_gamma   90.00000000
_symmetry_Int_Tables_number                    4
_chemical_formula_structural   Ni(IO3)2
_chemical_formula_sum   'Ni2 I4 O12'
_cell_volume   270.33234062
_cell_formula_units_Z   2
loop_
 _symmetry_equiv_pos_site_id
 _symmetry_equiv_pos_as_xyz
1 'x, y, z'
2 '-x, y+1/2, -z'

loop_
 _atom_site_type_symbol
 _atom_site_label
 _atom_site_symmetry_multiplicity
 _atom_site_fract_x
 _atom_site_fract_y
 _atom_site_fract_z
 _atom_site_occupancy
  Ni  Ni0  2  0.833712  0.867624  0.874992  1
  I  I1  2  0.020652  0.774147  0.717124  1
  I  I2  2  0.722604  0.553401  0.692458  1
  O  O3  2  0.022426  0.713451  0.938374  1
  O  O4  2  0.819847  0.262173  0.620906  1
  O  O5  2  0.366090  0.215264  0.825293  1
  O  O6  2  0.471918  0.466224  0.803292  1
  O  O7  2  0.644675  0.989849  0.348888  1
  O  O8  2  0.010329  0.937487  0.088368  1
