# generated using pymatgen
data_Ni(IO3)2
_symmetry_space_group_name_H-M 'P21'
_cell_length_a   5.48416635
_cell_length_b   5.26004470
_cell_length_c   9.37126090
_cell_angle_alpha   90.00000000
_cell_angle_beta   90.03451743
_cell_angle_gamma   90.00000000
_symmetry_Int_Tables_number                    4
_chemical_formula_structural   Ni(IO3)2
_chemical_formula_sum   'Ni2 I4 O12'
_cell_volume   270.33234062
_cell_formula_units_Z   2
loop_
 _symmetry_equiv_pos_site_id
 _symmetry_equiv_pos_as_xyz
1 'x, y, z'
2 '-x, y+1/2, -z'

loop_
 _atom_site_type_symbol
 _atom_site_label
 _atom_site_symmetry_multiplicity
 _atom_site_fract_x
 _atom_site_fract_y
 _atom_site_fract_z
 _atom_site_occupancy
  Ni  Ni0  2  0.081223  0.191867  0.540437  1
  I  I1  2  0.937766  0.496453  0.329102  1
  I  I2  2  0.459923  0.907662  0.933245  1
  O  O3  2  0.821819  0.434762  0.955028  1
  O  O4  2  0.163156  0.632953  0.858024  1
  O  O5  2  0.712264  0.013980  0.946015  1
  O  O6  2  0.477486  0.191763  0.168450  1
  O  O7  2  0.273674  0.345437  0.765120  1
  O  O8  2  0.563940  0.833136  0.160982  1
