# generated using pymatgen
data_Ni(IO3)2
_symmetry_space_group_name_H-M 'P21'
_cell_length_a   5.48416635
_cell_length_b   5.26004470
_cell_length_c   9.37126090
_cell_angle_alpha   90.00000000
_cell_angle_beta   90.03451743
_cell_angle_gamma   90.00000000
_symmetry_Int_Tables_number                    4
_chemical_formula_structural   Ni(IO3)2
_chemical_formula_sum   'Ni2 I4 O12'
_cell_volume   270.33234062
_cell_formula_units_Z   2
loop_
 _symmetry_equiv_pos_site_id
 _symmetry_equiv_pos_as_xyz
1 'x, y, z'
2 '-x, y+1/2, -z'

loop_
 _atom_site_type_symbol
 _atom_site_label
 _atom_site_symmetry_multiplicity
 _atom_site_fract_x
 _atom_site_fract_y
 _atom_site_fract_z
 _atom_site_occupancy
  Ni  Ni0  2  0.685517  0.825051  0.000225  1
  I  I1  2  0.925704  0.306501  0.135503  1
  I  I2  2  0.255036  0.642945  0.616712  1
  O  O3  2  0.666826  0.189456  0.959945  1
  O  O4  2  0.659290  0.121374  0.153519  1
  O  O5  2  0.758732  0.654266  0.025217  1
  O  O6  2  0.604382  0.468771  0.897254  1
  O  O7  2  0.896261  0.870497  0.548733  1
  O  O8  2  0.422313  0.751221  0.843649  1
