# generated using pymatgen
data_Ni(IO3)2
_symmetry_space_group_name_H-M 'P21'
_cell_length_a   5.48416635
_cell_length_b   5.26004470
_cell_length_c   9.37126090
_cell_angle_alpha   90.00000000
_cell_angle_beta   90.03451743
_cell_angle_gamma   90.00000000
_symmetry_Int_Tables_number                    4
_chemical_formula_structural   Ni(IO3)2
_chemical_formula_sum   'Ni2 I4 O12'
_cell_volume   270.33234062
_cell_formula_units_Z   2
loop_
 _symmetry_equiv_pos_site_id
 _symmetry_equiv_pos_as_xyz
1 'x, y, z'
2 '-x, y+1/2, -z'

loop_
 _atom_site_type_symbol
 _atom_site_label
 _atom_site_symmetry_multiplicity
 _atom_site_fract_x
 _atom_site_fract_y
 _atom_site_fract_z
 _atom_site_occupancy
  Ni  Ni0  2  0.482884  0.374108  0.431343  1
  I  I1  2  0.162658  0.223765  0.081017  1
  I  I2  2  0.154457  0.328828  0.849388  1
  O  O3  2  0.443767  0.281406  0.954318  1
  O  O4  2  0.346133  0.672209  0.856224  1
  O  O5  2  0.219805  0.922996  0.029398  1
  O  O6  2  0.739167  0.645661  0.705419  1
  O  O7  2  0.888568  0.446798  0.861139  1
  O  O8  2  0.759690  0.672721  0.343203  1
