# generated using pymatgen
data_Ni(IO3)2
_symmetry_space_group_name_H-M 'P21'
_cell_length_a   5.48416635
_cell_length_b   5.26004470
_cell_length_c   9.37126090
_cell_angle_alpha   90.00000000
_cell_angle_beta   90.03451743
_cell_angle_gamma   90.00000000
_symmetry_Int_Tables_number                    4
_chemical_formula_structural   Ni(IO3)2
_chemical_formula_sum   'Ni2 I4 O12'
_cell_volume   270.33234062
_cell_formula_units_Z   2
loop_
 _symmetry_equiv_pos_site_id
 _symmetry_equiv_pos_as_xyz
1 'x, y, z'
2 '-x, y+1/2, -z'

loop_
 _atom_site_type_symbol
 _atom_site_label
 _atom_site_symmetry_multiplicity
 _atom_site_fract_x
 _atom_site_fract_y
 _atom_site_fract_z
 _atom_site_occupancy
  Ni  Ni0  2  0.428118  0.820867  0.603066  1
  I  I1  2  0.218178  0.346987  0.443488  1
  I  I2  2  0.644797  0.621246  0.357059  1
  O  O3  2  0.089824  0.358420  0.942733  1
  O  O4  2  0.627549  0.075183  0.367244  1
  O  O5  2  0.515555  0.357376  0.050315  1
  O  O6  2  0.077154  0.780830  0.725045  1
  O  O7  2  0.546772  0.308998  0.190451  1
  O  O8  2  0.332416  0.401971  0.302248  1
