# generated using pymatgen
data_Ni(IO3)2
_symmetry_space_group_name_H-M 'P21'
_cell_length_a   5.48416635
_cell_length_b   5.26004470
_cell_length_c   9.37126090
_cell_angle_alpha   90.00000000
_cell_angle_beta   90.03451743
_cell_angle_gamma   90.00000000
_symmetry_Int_Tables_number                    4
_chemical_formula_structural   Ni(IO3)2
_chemical_formula_sum   'Ni2 I4 O12'
_cell_volume   270.33234062
_cell_formula_units_Z   2
loop_
 _symmetry_equiv_pos_site_id
 _symmetry_equiv_pos_as_xyz
1 'x, y, z'
2 '-x, y+1/2, -z'

loop_
 _atom_site_type_symbol
 _atom_site_label
 _atom_site_symmetry_multiplicity
 _atom_site_fract_x
 _atom_site_fract_y
 _atom_site_fract_z
 _atom_site_occupancy
  Ni  Ni0  2  0.570824  0.966919  0.190632  1
  I  I1  2  0.059456  0.716871  0.077746  1
  I  I2  2  0.664321  0.604522  0.455273  1
  O  O3  2  0.051988  0.552711  0.728994  1
  O  O4  2  0.649046  0.328200  0.404409  1
  O  O5  2  0.323513  0.915146  0.043431  1
  O  O6  2  0.116539  0.880097  0.562543  1
  O  O7  2  0.011037  0.098845  0.809194  1
  O  O8  2  0.887202  0.452343  0.685244  1
