# generated using pymatgen
data_Ni(IO3)2
_symmetry_space_group_name_H-M 'P21'
_cell_length_a   5.48416635
_cell_length_b   5.26004470
_cell_length_c   9.37126090
_cell_angle_alpha   90.00000000
_cell_angle_beta   90.03451743
_cell_angle_gamma   90.00000000
_symmetry_Int_Tables_number                    4
_chemical_formula_structural   Ni(IO3)2
_chemical_formula_sum   'Ni2 I4 O12'
_cell_volume   270.33234062
_cell_formula_units_Z   2
loop_
 _symmetry_equiv_pos_site_id
 _symmetry_equiv_pos_as_xyz
1 'x, y, z'
2 '-x, y+1/2, -z'

loop_
 _atom_site_type_symbol
 _atom_site_label
 _atom_site_symmetry_multiplicity
 _atom_site_fract_x
 _atom_site_fract_y
 _atom_site_fract_z
 _atom_site_occupancy
  Ni  Ni0  2  0.273295  0.661356  0.407476  1
  I  I1  2  0.161556  0.441862  0.635243  1
  I  I2  2  0.138971  0.908092  0.410522  1
  O  O3  2  0.960003  0.476323  0.739549  1
  O  O4  2  0.030574  0.176100  0.552803  1
  O  O5  2  0.331704  0.375189  0.724398  1
  O  O6  2  0.173492  0.717675  0.060052  1
  O  O7  2  0.322165  0.471609  0.118184  1
  O  O8  2  0.305416  0.927885  0.227771  1
