# generated using pymatgen
data_Ni(IO3)2
_symmetry_space_group_name_H-M 'P21'
_cell_length_a   5.48416635
_cell_length_b   5.26004470
_cell_length_c   9.37126090
_cell_angle_alpha   90.00000000
_cell_angle_beta   90.03451743
_cell_angle_gamma   90.00000000
_symmetry_Int_Tables_number                    4
_chemical_formula_structural   Ni(IO3)2
_chemical_formula_sum   'Ni2 I4 O12'
_cell_volume   270.33234062
_cell_formula_units_Z   2
loop_
 _symmetry_equiv_pos_site_id
 _symmetry_equiv_pos_as_xyz
1 'x, y, z'
2 '-x, y+1/2, -z'

loop_
 _atom_site_type_symbol
 _atom_site_label
 _atom_site_symmetry_multiplicity
 _atom_site_fract_x
 _atom_site_fract_y
 _atom_site_fract_z
 _atom_site_occupancy
  Ni  Ni0  2  0.268823  0.786228  0.395123  1
  I  I1  2  0.612029  0.037844  0.414818  1
  I  I2  2  0.295254  0.184413  0.745168  1
  O  O3  2  0.505622  0.648705  0.803734  1
  O  O4  2  0.693749  0.091336  0.213414  1
  O  O5  2  0.829700  0.522279  0.705137  1
  O  O6  2  0.321671  0.426248  0.040406  1
  O  O7  2  0.706566  0.135584  0.977445  1
  O  O8  2  0.418404  0.202052  0.335577  1
