# generated using pymatgen
data_Ni(IO3)2
_symmetry_space_group_name_H-M 'P21'
_cell_length_a   5.48416635
_cell_length_b   5.26004470
_cell_length_c   9.37126090
_cell_angle_alpha   90.00000000
_cell_angle_beta   90.03451743
_cell_angle_gamma   90.00000000
_symmetry_Int_Tables_number                    4
_chemical_formula_structural   Ni(IO3)2
_chemical_formula_sum   'Ni2 I4 O12'
_cell_volume   270.33234062
_cell_formula_units_Z   2
loop_
 _symmetry_equiv_pos_site_id
 _symmetry_equiv_pos_as_xyz
1 'x, y, z'
2 '-x, y+1/2, -z'

loop_
 _atom_site_type_symbol
 _atom_site_label
 _atom_site_symmetry_multiplicity
 _atom_site_fract_x
 _atom_site_fract_y
 _atom_site_fract_z
 _atom_site_occupancy
  Ni  Ni0  2  0.839071  0.647621  0.373568  1
  I  I1  2  0.535806  0.618734  0.171499  1
  I  I2  2  0.412088  0.073056  0.329109  1
  O  O3  2  0.827748  0.207950  0.171120  1
  O  O4  2  0.947792  0.667816  0.715715  1
  O  O5  2  0.987117  0.469200  0.746723  1
  O  O6  2  0.852145  0.874619  0.823464  1
  O  O7  2  0.909249  0.984782  0.140943  1
  O  O8  2  0.350378  0.819279  0.741556  1
