# generated using pymatgen
data_Ni(IO3)2
_symmetry_space_group_name_H-M 'P21'
_cell_length_a   5.48416635
_cell_length_b   5.26004470
_cell_length_c   9.37126090
_cell_angle_alpha   90.00000000
_cell_angle_beta   90.03451743
_cell_angle_gamma   90.00000000
_symmetry_Int_Tables_number                    4
_chemical_formula_structural   Ni(IO3)2
_chemical_formula_sum   'Ni2 I4 O12'
_cell_volume   270.33234062
_cell_formula_units_Z   2
loop_
 _symmetry_equiv_pos_site_id
 _symmetry_equiv_pos_as_xyz
1 'x, y, z'
2 '-x, y+1/2, -z'

loop_
 _atom_site_type_symbol
 _atom_site_label
 _atom_site_symmetry_multiplicity
 _atom_site_fract_x
 _atom_site_fract_y
 _atom_site_fract_z
 _atom_site_occupancy
  Ni  Ni0  2  0.662434  0.403257  0.950837  1
  I  I1  2  0.144463  0.018687  0.483830  1
  I  I2  2  0.260276  0.215477  0.760530  1
  O  O3  2  0.512173  0.608180  0.644400  1
  O  O4  2  0.344085  0.595012  0.034638  1
  O  O5  2  0.525857  0.034677  0.054445  1
  O  O6  2  0.975580  0.549581  0.934298  1
  O  O7  2  0.686767  0.912617  0.293849  1
  O  O8  2  0.617331  0.120895  0.396649  1
