# generated using pymatgen
data_Ni(IO3)2
_symmetry_space_group_name_H-M 'P21'
_cell_length_a   5.48416635
_cell_length_b   5.26004470
_cell_length_c   9.37126090
_cell_angle_alpha   90.00000000
_cell_angle_beta   90.03451743
_cell_angle_gamma   90.00000000
_symmetry_Int_Tables_number                    4
_chemical_formula_structural   Ni(IO3)2
_chemical_formula_sum   'Ni2 I4 O12'
_cell_volume   270.33234062
_cell_formula_units_Z   2
loop_
 _symmetry_equiv_pos_site_id
 _symmetry_equiv_pos_as_xyz
1 'x, y, z'
2 '-x, y+1/2, -z'

loop_
 _atom_site_type_symbol
 _atom_site_label
 _atom_site_symmetry_multiplicity
 _atom_site_fract_x
 _atom_site_fract_y
 _atom_site_fract_z
 _atom_site_occupancy
  Ni  Ni0  2  0.599029  0.152661  0.655721  1
  I  I1  2  0.065386  0.592073  0.226795  1
  I  I2  2  0.954673  0.362550  0.753305  1
  O  O3  2  0.595603  0.659670  0.075120  1
  O  O4  2  0.467475  0.001792  0.758774  1
  O  O5  2  0.066742  0.599198  0.063089  1
  O  O6  2  0.759111  0.098369  0.527859  1
  O  O7  2  0.375753  0.248017  0.685085  1
  O  O8  2  0.221394  0.462191  0.096813  1
