# generated using pymatgen
data_Ni(IO3)2
_symmetry_space_group_name_H-M 'P21'
_cell_length_a   5.48416635
_cell_length_b   5.26004470
_cell_length_c   9.37126090
_cell_angle_alpha   90.00000000
_cell_angle_beta   90.03451743
_cell_angle_gamma   90.00000000
_symmetry_Int_Tables_number                    4
_chemical_formula_structural   Ni(IO3)2
_chemical_formula_sum   'Ni2 I4 O12'
_cell_volume   270.33234062
_cell_formula_units_Z   2
loop_
 _symmetry_equiv_pos_site_id
 _symmetry_equiv_pos_as_xyz
1 'x, y, z'
2 '-x, y+1/2, -z'

loop_
 _atom_site_type_symbol
 _atom_site_label
 _atom_site_symmetry_multiplicity
 _atom_site_fract_x
 _atom_site_fract_y
 _atom_site_fract_z
 _atom_site_occupancy
  Ni  Ni0  2  0.303059  0.649824  0.149780  1
  I  I1  2  0.190013  0.063397  0.575445  1
  I  I2  2  0.684749  0.291676  0.323921  1
  O  O3  2  0.799969  0.955735  0.542807  1
  O  O4  2  0.621231  0.504093  0.826406  1
  O  O5  2  0.030249  0.998000  0.923970  1
  O  O6  2  0.271368  0.844793  0.320963  1
  O  O7  2  0.089816  0.969561  0.455662  1
  O  O8  2  0.760825  0.764400  0.603982  1
