# generated using pymatgen
data_Ni(IO3)2
_symmetry_space_group_name_H-M 'P21'
_cell_length_a   5.48416635
_cell_length_b   5.26004470
_cell_length_c   9.37126090
_cell_angle_alpha   90.00000000
_cell_angle_beta   90.03451743
_cell_angle_gamma   90.00000000
_symmetry_Int_Tables_number                    4
_chemical_formula_structural   Ni(IO3)2
_chemical_formula_sum   'Ni2 I4 O12'
_cell_volume   270.33234062
_cell_formula_units_Z   2
loop_
 _symmetry_equiv_pos_site_id
 _symmetry_equiv_pos_as_xyz
1 'x, y, z'
2 '-x, y+1/2, -z'

loop_
 _atom_site_type_symbol
 _atom_site_label
 _atom_site_symmetry_multiplicity
 _atom_site_fract_x
 _atom_site_fract_y
 _atom_site_fract_z
 _atom_site_occupancy
  Ni  Ni0  2  0.225503  0.488251  0.170610  1
  I  I1  2  0.784618  0.108486  0.342594  1
  I  I2  2  0.129103  0.782499  0.270564  1
  O  O3  2  0.800494  0.937231  0.488309  1
  O  O4  2  0.633900  0.092136  0.591457  1
  O  O5  2  0.255902  0.473770  0.068211  1
  O  O6  2  0.012647  0.071428  0.591392  1
  O  O7  2  0.474303  0.956249  0.818264  1
  O  O8  2  0.190119  0.304211  0.745682  1
