# generated using pymatgen
data_Ni(IO3)2
_symmetry_space_group_name_H-M 'P21'
_cell_length_a   5.48416635
_cell_length_b   5.26004470
_cell_length_c   9.37126090
_cell_angle_alpha   90.00000000
_cell_angle_beta   90.03451743
_cell_angle_gamma   90.00000000
_symmetry_Int_Tables_number                    4
_chemical_formula_structural   Ni(IO3)2
_chemical_formula_sum   'Ni2 I4 O12'
_cell_volume   270.33234062
_cell_formula_units_Z   2
loop_
 _symmetry_equiv_pos_site_id
 _symmetry_equiv_pos_as_xyz
1 'x, y, z'
2 '-x, y+1/2, -z'

loop_
 _atom_site_type_symbol
 _atom_site_label
 _atom_site_symmetry_multiplicity
 _atom_site_fract_x
 _atom_site_fract_y
 _atom_site_fract_z
 _atom_site_occupancy
  Ni  Ni0  2  0.782200  0.711545  0.218958  1
  I  I1  2  0.545614  0.779280  0.725600  1
  I  I2  2  0.746680  0.273891  0.659542  1
  O  O3  2  0.563794  0.126897  0.344442  1
  O  O4  2  0.769199  0.922119  0.319486  1
  O  O5  2  0.895389  0.433935  0.980730  1
  O  O6  2  0.038351  0.653949  0.471921  1
  O  O7  2  0.033834  0.722789  0.997852  1
  O  O8  2  0.583085  0.221552  0.800137  1
