# generated using pymatgen
data_Ni(IO3)2
_symmetry_space_group_name_H-M 'P21'
_cell_length_a   5.48416635
_cell_length_b   5.26004470
_cell_length_c   9.37126090
_cell_angle_alpha   90.00000000
_cell_angle_beta   90.03451743
_cell_angle_gamma   90.00000000
_symmetry_Int_Tables_number                    4
_chemical_formula_structural   Ni(IO3)2
_chemical_formula_sum   'Ni2 I4 O12'
_cell_volume   270.33234062
_cell_formula_units_Z   2
loop_
 _symmetry_equiv_pos_site_id
 _symmetry_equiv_pos_as_xyz
1 'x, y, z'
2 '-x, y+1/2, -z'

loop_
 _atom_site_type_symbol
 _atom_site_label
 _atom_site_symmetry_multiplicity
 _atom_site_fract_x
 _atom_site_fract_y
 _atom_site_fract_z
 _atom_site_occupancy
  Ni  Ni0  2  0.971601  0.716493  0.006155  1
  I  I1  2  0.235583  0.771020  0.509427  1
  I  I2  2  0.657992  0.348731  0.820920  1
  O  O3  2  0.068990  0.080264  0.634080  1
  O  O4  2  0.666768  0.937805  0.723889  1
  O  O5  2  0.350813  0.579751  0.766326  1
  O  O6  2  0.535678  0.065728  0.027685  1
  O  O7  2  0.263492  0.313919  0.845305  1
  O  O8  2  0.338995  0.404163  0.682179  1
