# generated using pymatgen
data_Ni(IO3)2
_symmetry_space_group_name_H-M 'P21'
_cell_length_a   5.48416635
_cell_length_b   5.26004470
_cell_length_c   9.37126090
_cell_angle_alpha   90.00000000
_cell_angle_beta   90.03451743
_cell_angle_gamma   90.00000000
_symmetry_Int_Tables_number                    4
_chemical_formula_structural   Ni(IO3)2
_chemical_formula_sum   'Ni2 I4 O12'
_cell_volume   270.33234062
_cell_formula_units_Z   2
loop_
 _symmetry_equiv_pos_site_id
 _symmetry_equiv_pos_as_xyz
1 'x, y, z'
2 '-x, y+1/2, -z'

loop_
 _atom_site_type_symbol
 _atom_site_label
 _atom_site_symmetry_multiplicity
 _atom_site_fract_x
 _atom_site_fract_y
 _atom_site_fract_z
 _atom_site_occupancy
  Ni  Ni0  2  0.548839  0.579752  0.050234  1
  I  I1  2  0.220069  0.375202  0.967230  1
  I  I2  2  0.942295  0.304025  0.571515  1
  O  O3  2  0.268438  0.216785  0.582345  1
  O  O4  2  0.459168  0.152198  0.115957  1
  O  O5  2  0.866025  0.929752  0.315585  1
  O  O6  2  0.747999  0.735238  0.125660  1
  O  O7  2  0.269394  0.660195  0.233026  1
  O  O8  2  0.753374  0.128500  0.688189  1
