# generated using pymatgen
data_Ni(IO3)2
_symmetry_space_group_name_H-M 'P21'
_cell_length_a   5.48416635
_cell_length_b   5.26004470
_cell_length_c   9.37126090
_cell_angle_alpha   90.00000000
_cell_angle_beta   90.03451743
_cell_angle_gamma   90.00000000
_symmetry_Int_Tables_number                    4
_chemical_formula_structural   Ni(IO3)2
_chemical_formula_sum   'Ni2 I4 O12'
_cell_volume   270.33234062
_cell_formula_units_Z   2
loop_
 _symmetry_equiv_pos_site_id
 _symmetry_equiv_pos_as_xyz
1 'x, y, z'
2 '-x, y+1/2, -z'

loop_
 _atom_site_type_symbol
 _atom_site_label
 _atom_site_symmetry_multiplicity
 _atom_site_fract_x
 _atom_site_fract_y
 _atom_site_fract_z
 _atom_site_occupancy
  Ni  Ni0  2  0.804426  0.138735  0.898554  1
  I  I1  2  0.806284  0.130145  0.132178  1
  I  I2  2  0.548250  0.239291  0.526910  1
  O  O3  2  0.553266  0.331568  0.992550  1
  O  O4  2  0.502556  0.449593  0.492992  1
  O  O5  2  0.036424  0.968781  0.214458  1
  O  O6  2  0.025997  0.331861  0.316033  1
  O  O7  2  0.399535  0.856561  0.316766  1
  O  O8  2  0.890015  0.762845  0.193617  1
