# generated using pymatgen
data_Ni(IO3)2
_symmetry_space_group_name_H-M 'P21'
_cell_length_a   5.48416635
_cell_length_b   5.26004470
_cell_length_c   9.37126090
_cell_angle_alpha   90.00000000
_cell_angle_beta   90.03451743
_cell_angle_gamma   90.00000000
_symmetry_Int_Tables_number                    4
_chemical_formula_structural   Ni(IO3)2
_chemical_formula_sum   'Ni2 I4 O12'
_cell_volume   270.33234062
_cell_formula_units_Z   2
loop_
 _symmetry_equiv_pos_site_id
 _symmetry_equiv_pos_as_xyz
1 'x, y, z'
2 '-x, y+1/2, -z'

loop_
 _atom_site_type_symbol
 _atom_site_label
 _atom_site_symmetry_multiplicity
 _atom_site_fract_x
 _atom_site_fract_y
 _atom_site_fract_z
 _atom_site_occupancy
  Ni  Ni0  2  0.621271  0.765051  0.703784  1
  I  I1  2  0.720158  0.319718  0.075955  1
  I  I2  2  0.602730  0.137135  0.260350  1
  O  O3  2  0.060044  0.207316  0.807331  1
  O  O4  2  0.374375  0.266050  0.055729  1
  O  O5  2  0.810380  0.813010  0.435782  1
  O  O6  2  0.202817  0.693175  0.039689  1
  O  O7  2  0.306955  0.281787  0.706324  1
  O  O8  2  0.062724  0.310985  0.884311  1
