# generated using pymatgen
data_Ni(IO3)2
_symmetry_space_group_name_H-M 'P21'
_cell_length_a   5.48416635
_cell_length_b   5.26004470
_cell_length_c   9.37126090
_cell_angle_alpha   90.00000000
_cell_angle_beta   90.03451743
_cell_angle_gamma   90.00000000
_symmetry_Int_Tables_number                    4
_chemical_formula_structural   Ni(IO3)2
_chemical_formula_sum   'Ni2 I4 O12'
_cell_volume   270.33234062
_cell_formula_units_Z   2
loop_
 _symmetry_equiv_pos_site_id
 _symmetry_equiv_pos_as_xyz
1 'x, y, z'
2 '-x, y+1/2, -z'

loop_
 _atom_site_type_symbol
 _atom_site_label
 _atom_site_symmetry_multiplicity
 _atom_site_fract_x
 _atom_site_fract_y
 _atom_site_fract_z
 _atom_site_occupancy
  Ni  Ni0  2  0.178074  0.829881  0.571779  1
  I  I1  2  0.665975  0.226304  0.831053  1
  I  I2  2  0.643611  0.082189  0.509271  1
  O  O3  2  0.412203  0.556306  0.851763  1
  O  O4  2  0.938234  0.864094  0.489277  1
  O  O5  2  0.769444  0.671748  0.832584  1
  O  O6  2  0.506517  0.623714  0.233911  1
  O  O7  2  0.577527  0.047771  0.643280  1
  O  O8  2  0.065566  0.890372  0.211973  1
