# generated using pymatgen
data_Ni(IO3)2
_symmetry_space_group_name_H-M 'P21'
_cell_length_a   5.48416635
_cell_length_b   5.26004470
_cell_length_c   9.37126090
_cell_angle_alpha   90.00000000
_cell_angle_beta   90.03451743
_cell_angle_gamma   90.00000000
_symmetry_Int_Tables_number                    4
_chemical_formula_structural   Ni(IO3)2
_chemical_formula_sum   'Ni2 I4 O12'
_cell_volume   270.33234062
_cell_formula_units_Z   2
loop_
 _symmetry_equiv_pos_site_id
 _symmetry_equiv_pos_as_xyz
1 'x, y, z'
2 '-x, y+1/2, -z'

loop_
 _atom_site_type_symbol
 _atom_site_label
 _atom_site_symmetry_multiplicity
 _atom_site_fract_x
 _atom_site_fract_y
 _atom_site_fract_z
 _atom_site_occupancy
  Ni  Ni0  2  0.168099  0.863943  0.733723  1
  I  I1  2  0.957410  0.505420  0.526992  1
  I  I2  2  0.883841  0.040308  0.134983  1
  O  O3  2  0.141089  0.227528  0.071954  1
  O  O4  2  0.793134  0.582047  0.424517  1
  O  O5  2  0.348606  0.941988  0.878595  1
  O  O6  2  0.627682  0.550742  0.798210  1
  O  O7  2  0.318962  0.402545  0.960272  1
  O  O8  2  0.420167  0.058573  0.997302  1
