# generated using pymatgen
data_TbCd2F8
_symmetry_space_group_name_H-M 'I-4'
_cell_length_a   5.33844082
_cell_length_b   5.33844082
_cell_length_c   11.49277698
_cell_angle_alpha   90.00000000
_cell_angle_beta   90.00000000
_cell_angle_gamma   90.00000000
_symmetry_Int_Tables_number                   82
_chemical_formula_structural   TbCd2F8
_chemical_formula_sum   'Tb2 Cd4 F16'
_cell_volume   327.53208098
_cell_formula_units_Z   2
loop_
 _symmetry_equiv_pos_site_id
 _symmetry_equiv_pos_as_xyz
1 'x, y, z'
2 '-x, -y, z'
3 'y, -x, -z'
4 '-y, x, -z'
5 'x+1/2, y+1/2, z+1/2'
6 '-x+1/2, -y+1/2, z+1/2'
7 'y+1/2, -x+1/2, -z+1/2'
8 '-y+1/2, x+1/2, -z+1/2'

loop_
 _atom_site_type_symbol
 _atom_site_label
 _atom_site_symmetry_multiplicity
 _atom_site_fract_x
 _atom_site_fract_y
 _atom_site_fract_z
 _atom_site_occupancy
  Tb  Tb0  2  0.000000  0.500000  0.750000  1
  Cd  Cd1  2  0.000000  0.000000  0.000000  1
  Cd  Cd2  2  0.000000  0.000000  0.500000  1
  F  F3  8  0.398961  0.205702  0.432654  1
  F  F4  8  0.479143  0.353201  0.821718  1
