# generated using pymatgen
data_VMoO5
_symmetry_space_group_name_H-M 'P4/n'
_cell_length_a   6.75420205
_cell_length_b   6.75420205
_cell_length_c   4.46381523
_cell_angle_alpha   90.00000000
_cell_angle_beta   90.00000000
_cell_angle_gamma   90.00000000
_symmetry_Int_Tables_number                   85
_chemical_formula_structural   VMoO5
_chemical_formula_sum   'V2 Mo2 O10'
_cell_volume   203.63588210
_cell_formula_units_Z   2
loop_
 _symmetry_equiv_pos_site_id
 _symmetry_equiv_pos_as_xyz
1 'x, y, z'
2 '-x+1/2, -y+1/2, z'
3 '-y+1/2, x, z'
4 'y, -x+1/2, z'
5 '-x, -y, -z'
6 'x+1/2, y+1/2, -z'
7 'y+1/2, -x, -z'
8 '-y, x+1/2, -z'

loop_
 _atom_site_type_symbol
 _atom_site_label
 _atom_site_symmetry_multiplicity
 _atom_site_fract_x
 _atom_site_fract_y
 _atom_site_fract_z
 _atom_site_occupancy
  V  V0  2  0.250000  0.750000  0.500000  1
  Mo  Mo1  2  0.250000  0.750000  0.000000  1
  O  O2  8  0.011444  0.822920  0.993767  1
  O  O3  2  0.250000  0.250000  0.681577  1
