# generated using pymatgen
data_Fe2TeSe
_symmetry_space_group_name_H-M 'P4mm'
_cell_length_a   3.75539844
_cell_length_b   3.75539844
_cell_length_c   5.93771737
_cell_angle_alpha   90.00000000
_cell_angle_beta   90.00000000
_cell_angle_gamma   90.00000000
_symmetry_Int_Tables_number                   99
_chemical_formula_structural   Fe2TeSe
_chemical_formula_sum   'Fe2 Te1 Se1'
_cell_volume   83.73973164
_cell_formula_units_Z   1
loop_
 _symmetry_equiv_pos_site_id
 _symmetry_equiv_pos_as_xyz
1 'x, y, z'
2 '-x, -y, z'
3 '-y, x, z'
4 'y, -x, z'
5 'x, -y, z'
6 '-x, y, z'
7 '-y, -x, z'
8 'y, x, z'

loop_
 _atom_site_type_symbol
 _atom_site_label
 _atom_site_symmetry_multiplicity
 _atom_site_fract_x
 _atom_site_fract_y
 _atom_site_fract_z
 _atom_site_occupancy
  Fe  Fe0  2  0.500000  0.000000  0.178750  1
  Te  Te1  1  0.000000  0.000000  0.182796  1
  Se  Se2  1  0.500000  0.500000  0.563367  1
