# generated using pymatgen
data_NbCrO4
_symmetry_space_group_name_H-M   'P 1'
_cell_length_a   6.70124761
_cell_length_b   6.70124761
_cell_length_c   6.11167922
_cell_angle_alpha   90.00000000
_cell_angle_beta   90.00000000
_cell_angle_gamma   90.00000000
_symmetry_Int_Tables_number   1
_chemical_formula_structural   NbCrO4
_chemical_formula_sum   'Nb4 Cr4 O16'
_cell_volume   274.45546459
_cell_formula_units_Z   4
loop_
 _symmetry_equiv_pos_site_id
 _symmetry_equiv_pos_as_xyz
  1  'x, y, z'
loop_
 _atom_site_type_symbol
 _atom_site_label
 _atom_site_symmetry_multiplicity
 _atom_site_fract_x
 _atom_site_fract_y
 _atom_site_fract_z
 _atom_site_occupancy
  Cr  Cr0  1  0.00000000  0.00000000  0.65372925  1
  Cr  Cr1  1  0.00000000  0.50000000  0.90372925  1
  Cr  Cr2  1  0.50000000  0.50000000  0.15372925  1
  Cr  Cr3  1  0.50000000  0.00000000  0.40372925  1
  Nb  Nb4  1  0.00000000  0.00000000  0.24371995  1
  Nb  Nb5  1  0.00000000  0.50000000  0.49371995  1
  Nb  Nb6  1  0.50000000  0.50000000  0.74371995  1
  Nb  Nb7  1  0.50000000  0.00000000  0.99371995  1
  O  O8  1  0.00000000  0.00000000  0.97900778  1
  O  O9  1  0.00000000  0.50000000  0.22900778  1
  O  O10  1  0.50000000  0.50000000  0.47900778  1
  O  O11  1  0.50000000  0.00000000  0.72900778  1
  O  O12  1  0.00000000  0.42249026  0.71894770  1
  O  O13  1  0.50000000  0.07750974  1.21894770  1
  O  O14  1  -0.42249026  0.50000000  0.96894770  1
  O  O15  1  0.92249026  -0.00000000  1.46894770  1
  O  O16  1  0.50000000  0.92249026  1.21894770  1
  O  O17  1  1.00000000  0.57750974  1.71894770  1
  O  O18  1  0.07750974  1.00000000  1.46894770  1
  O  O19  1  1.42249026  0.50000000  1.96894770  1
  O  O20  1  0.00000000  0.00000000  0.84687427  1
  O  O21  1  0.00000000  0.50000000  0.09687427  1
  O  O22  1  0.50000000  0.50000000  0.34687427  1
  O  O23  1  0.50000000  0.00000000  0.59687427  1
